125

 H             0.852185  -0.677147   0.516419          -0.00230041  -0.0429216    0.266127
 H              1.33672   0.303825   0.449346            -0.01996   0.108522  0.0605742
 H              2.10797    -0.5164   0.526077           0.0577507 -0.0691454 -0.0351676
 H              3.08046   0.283543   0.458613          -0.0312578 -0.0987473   -0.26753
 H              3.71524  -0.596022   0.526797          0.000845432    0.127634   0.0468889
 H             0.396995   0.816115    0.16374           -0.229132 -0.0979258  -0.238978
 H               1.3103    1.40317    0.46394          -0.0323885   0.170909   -0.40707
 H              2.22142    0.84241   0.111479          -0.0965411 -0.0726477 -0.0819077
 H               3.1069     1.4017   0.489158             0.19716   0.054502  -0.267345
 H              3.97854   0.851852   0.137784            0.117961  -0.315154  0.0511793
 H             0.416295     1.9539   0.151288            -0.282245  -0.0346495 -0.00547821
 H              1.30816    2.50954   0.480725          -0.0333122  -0.125708  0.0762322
 H              2.20247    1.95309   0.127243           0.0225112   0.293792  0.0916274
 H              3.09599    2.50895   0.494467            0.110409 -0.0489982  -0.120187
 H              3.99773    1.95856   0.144631          -0.0318457 -0.0321728   0.100159
 H             0.387171    3.07466   0.164155            0.143629 -0.0922629  -0.101766
 H              1.30447    3.58984   0.492571            0.285996  -0.161429   0.029445
 H               2.2041    3.06646   0.175988          -0.0617466  -0.114674 -0.0503327
 H              3.09277    3.58783   0.505242              0.2107   0.232357  -0.027612
 H              3.98713    3.06492   0.176597          -0.0196622  -0.136111 -0.0704355
 H             0.355228    4.17977   0.259382          0.00662687  0.0152986  -0.134202
 H              1.30344    4.71024   0.521506            -0.299388 -0.00857119   -0.102372
 H              2.19387    4.16127   0.204088            0.074538  -0.070235  -0.104592
 H              3.07896    4.71556   0.537602           -0.132527  0.0536307   0.279016
 H              3.95665    4.16383   0.174499          -0.0305484  -0.162444  0.0254523
 H              0.44674   0.268262    1.11004           -0.0459623    0.221768 -0.00213897
 H              1.34477  -0.256059    1.40183             0.23683   0.044256   0.418282
 H               2.2155   0.349508    1.12063            0.158248   0.281532 0.00128091
 H              3.05674  -0.264361    1.40098            -0.15335 -0.0713039  0.0499657
 H               3.9909   0.313576    1.10107          -0.0121529   0.126218   0.201107
 H             0.377568    1.38119    1.09513            0.114589    0.17121   0.233639
 H              1.30434   0.875454    1.41088          -0.0597329 -0.0832889  -0.199967
 H              2.19736    1.41229    1.10508           0.0520756 0.00849419  0.0118503
 H               3.0971   0.870456    1.41985           0.0283854  0.0245689   0.105424
 H              4.01761    1.40023    1.11874          -0.0388705  0.0464428  0.0697245
 H             0.395512    2.48735    1.13001           -0.234367  -0.003815   0.216544
 H              1.28476    1.94102    1.42157           0.0121795  0.0442729   0.187987
 H              2.20147    2.49946    1.11501           0.0273251 -0.0677586   -0.11335
 H              3.10371    1.95232    1.43739           0.0424235   0.145675  -0.137981
 H              4.03667    2.50553    1.12546           -0.0200632 -0.00853322   -0.107616
 H             0.415268    3.59691    1.16677            -0.14294   0.170893 -0.0556649
 H              1.29257    3.03096    1.45266            0.167583   0.147172 0.00545395
 H              2.20788    3.59158    1.13985           -0.156321  0.0271303 -0.0987207
 H              3.10424    3.02938    1.44136          -0.0448767  0.0422839   0.013055
 H              3.99646     3.5981    1.13988            0.104337  0.0784039 -0.0857087
 H             0.458424    4.75501    1.22072           0.0878118   0.104289  0.0498509
 H              1.32413    4.10638     1.4509            0.171758 -0.0921884  0.0674823
 H              2.21247    4.70878    1.19922             0.14487   -0.18252 -0.0334402
 H               3.1012     4.1393    1.45021           -0.123278   -0.07223   0.141348
 H              3.99629    4.71698    1.16688           0.0403871  0.0795007   0.266085
 H             0.430462  -0.322353    2.05646            0.141248  -0.154237  -0.127754
 H              1.30608   0.319183    2.34078           0.0409689  -0.131362   0.111032
 H              2.21009   -0.27147    2.06688           0.0192997  0.0308852  0.0587959
 H              3.09357   0.314185    2.33107           -0.158854  -0.054769  0.0550459
 H              3.97159  -0.302502    2.03724           0.0440144 -0.0102067  -0.111934
 H             0.385855   0.843354    2.06121            0.174851  -0.132092  0.0483963
 H              1.30232    1.39516    2.37591            0.175951  -0.131552  0.0802314
 H              2.20643   0.869254    2.04876           0.0865008  -0.257239   0.101348
 H              3.10603    1.40063    2.37524            -0.15771 -0.0554319   0.119985
 H              4.00203    0.82914    2.05177             0.035333    0.293561 -0.00172721
 H             0.390833     1.9356    2.06987          0.00993814   0.266685 -0.0508043
 H              1.27927    2.48404    2.39169            0.0953365 -0.00830408   -0.152349
 H               2.1872    1.94942    2.05848           -0.120822 -0.0444179 -0.0148658
 H              3.09271    2.46885    2.39108           -0.323183  0.0249665  0.0992907
 H              4.00738    1.92643     2.0668           -0.362854 0.00933465  -0.121276
 H             0.384821    3.05086    2.08497           -0.168421 -0.0580623   0.162542
 H              1.29262    3.56226    2.40484           -0.190179   0.139373  -0.256924
 H              2.20881     3.0351    2.06211           -0.114303   0.155333   0.055384
 H              3.10182    3.57974    2.37575           0.0307897  -0.259892  -0.182908
 H              4.01445    3.04645    2.08788           0.0852514 0.00684388   0.147938
 H             0.416236    4.14657    2.11762           0.0262577  0.0892849 -0.0690447
 H              1.33916    4.69736    2.38943            0.118106   0.108137 -0.0365054
 H              2.20419    4.11396    2.10652          -0.0263957   0.355682    0.16259
 H              3.07904    4.68966    2.40095            -0.15238  0.0700921 -0.0131988
 H              4.00181    4.15643    2.11014           -0.020276   0.134314 -0.0928494
 H             0.388341   0.284998    2.97881          0.00102744  0.0341938 -0.0607122
 H              1.29757  -0.267807    3.25263             0.13643 -0.0391863  -0.290565
 H              2.20385   0.327102    3.00362            0.110784  -0.145163 -0.0873636
 H              3.06973  -0.263551    3.25165                0.11 -0.0256231  -0.201587
 H              3.99383   0.267294    2.99892           0.0224017  0.0292063  0.0276524
 H             0.388272    1.39449    3.00322          -0.0795389   0.142361  0.0980208
 H              1.28528   0.830935    3.33119          -0.0451975  -0.230076  0.0354225
 H              2.18725    1.40728    2.99847          -0.0851084 -0.0569724   0.110639
 H               3.0926   0.838987    3.30447          -0.0125924  -0.151571  -0.177363
 H              3.99129    1.38316    3.02248          -0.0902836  -0.159436 -0.0724795
 H             0.372281    2.50169    3.02394            0.168284 0.00337047  0.0223071
 H              1.28979      1.927    3.33301           -0.114983   0.145709  -0.187807
 H               2.1855    2.48482    3.00893          0.00827421  0.0205929   -0.19527
 H              3.08741    1.92741    3.34938            0.248657 -0.0982627  -0.127888
 H              4.00059    2.47358    3.05009           0.0966008  -0.154292  0.0536348
 H             0.379408    3.60782    3.06039           -0.0810743 -0.00265323  -0.0552272
 H              1.28848     3.0183     3.3434             0.165762 -0.00542691 0.000785509
 H              2.20565    3.56047    3.02827          -0.0350169  -0.107576   0.163519
 H              3.08535    3.00615    3.34554           0.0310475  -0.143233  -0.093671
 H              3.99625    3.59308    3.05425           0.0255908  0.0100599  0.0377281
 H             0.486985    4.74779    3.08839           0.0708069  -0.283502    -0.1103
 H              1.33071    4.08183    3.32612          -0.0828991 0.00350315  -0.119685
 H              2.21263    4.71703    3.07168            0.191784  0.0298832 -0.0900245
 H              3.06792    4.09866    3.33636          -0.0910005  0.0529687  0.0740025
 H              3.95775    4.71946    3.07066            0.179806   0.144013  0.0930784
 H             0.399151  -0.305436    3.91766           -0.144443  -0.120231 -0.0787578
 H               1.3023   0.252672    4.25769          -0.0998995  0.0672288   0.244471
 H              2.20131  -0.284076    3.89005           -0.129863 0.00120596   0.211649
 H              3.08477   0.252013    4.23158            0.111284   0.107286 -0.0770567
 H              3.99097  -0.320358     3.9491           -0.107084  -0.128008  0.0715338
 H              0.41071   0.814742    3.95723            -0.13448   0.187575   0.187228
 H              1.30364    1.36878    4.29691          -0.0817817 0.00279967  0.0984141
 H              2.17867   0.830202    3.95159            0.203973 -0.0602314  -0.168744
 H              3.10955    1.35958    4.26914             0.11427   0.116828 -0.0276748
 H              4.00921    0.78771    3.95481            0.108365   0.179292 -0.0151746
 H             0.383118    1.92291    3.96091          -0.0890146 -0.0805823   0.049241
 H              1.31303    2.45654    4.27582           0.0963405  0.0408205   0.428892
 H              2.19698    1.91372    3.96786           -0.118808  0.0501873  0.0684877
 H              3.08097    2.47277     4.3163          -0.0521873   0.104812  -0.106611
 H              3.98459    1.92573    3.99369          -0.0615576 -0.0523946   0.163925
 H              0.41619    3.02857       4.02          0.000282039    -0.29212    0.016751
 H              1.33166    3.59127    4.35171          -0.0600597  0.0784709  0.0909037
 H              2.19588    3.00962    3.96592             0.195651   0.0621711 -0.00138429
 H              3.06008    3.56241    4.32321          -0.00175246   -0.112849 -0.00154082
 H              3.99053    3.02723    3.99536          -0.0572082  0.0724013  -0.169669
 H             0.481935    4.19285    4.00371           0.0567437  -0.182793  -0.180415
 H              1.41252    4.96607    3.89354            0.127467   0.137235 -0.0569031
 H              2.20795    4.13057     4.0035           0.0413674   0.298663   0.176195
 H              3.00752    4.97374    3.93183           -0.122695  -0.244099  0.0838702
 H              3.91636    4.16378    4.02615           -0.215101  -0.188801 -0.0411366
