125

 H             0.826382  -0.649337   0.547329            0.183645   0.332682 -0.0639769
 H              1.31744   0.306289   0.469739            0.174913  -0.126794  0.0166234
 H              2.06389  -0.543101   0.562826             0.24295  -0.150625   0.074681
 H              3.06931   0.304427   0.458443           -0.197717  0.0866591   0.177869
 H              3.69981  -0.599501   0.525116          -0.0611198  -0.185704  -0.100217
 H             0.424865    0.82995   0.145974            0.347516   0.201318  0.0292972
 H              1.29986    1.41545    0.47079           0.0223117  -0.172208 0.00911355
 H              2.19632    0.85596    0.15076          -0.0303467  0.0967542   0.134462
 H              3.09294    1.42727   0.456728          -0.0854987   0.112204  0.0907566
 H              3.98786   0.856093   0.144941            0.352733 -0.0564854  -0.159352
 H              0.39013    1.98072   0.156455          -0.0327444  -0.263175 -0.0552776
 H              1.29005    2.51501   0.479733           -0.108003  0.0178996  -0.118923
 H              2.20398    1.97057   0.153456           -0.244823 -0.0310425 -0.0828145
 H              3.09685    2.51125   0.482756           -0.125273 -0.0106116  0.0885675
 H              4.00063    1.95189   0.148332          -0.0549016  -0.182119  0.0054208
 H             0.397342    3.09262   0.189218          -0.0333929  -0.163835   0.209413
 H              1.32423    3.61163   0.484761            0.157683 -0.0883194   0.142188
 H              2.19348     3.0732   0.141136          -0.0875949  -0.126745  0.0941165
 H              3.08724    3.60469    0.50212          -0.0792802 -0.0649917 -0.0473024
 H              3.98989    3.07355   0.154254           -0.113848 -0.0752936  -0.203803
 H             0.417753     4.1964    0.23626           0.0110028 -0.0967603 -0.0447206
 H              1.32288    4.75543    0.54647          -0.0854058   0.144017   0.113668
 H              2.19958    4.18358   0.193056            -0.233043  -0.0562695 -0.00591781
 H                3.094    4.73667    0.55584          -0.0232163   0.130868 -0.0809464
 H              3.98163    4.17975   0.222745          -0.0323617  -0.324076  0.0137535
 H             0.410799   0.273198    1.09851            0.213013 -0.0458697 -0.0887398
 H              1.35071  -0.256984    1.42531           -0.275335    0.12694  0.0866395
 H               2.2048   0.344859     1.1439            0.195845   0.253923 -0.0624959
 H              3.08018  -0.270972    1.38993           -0.213219 0.00223886  0.0809572
 H              3.98388   0.282288    1.10192          -0.0322425 0.00772697   0.133746
 H             0.394148    1.37605    1.08895           -0.111455  0.0867591 -0.0505676
 H              1.30094   0.860401    1.41536            0.106394  -0.014939   0.147394
 H               2.1877    1.41861    1.11324           0.0911115   0.116828  0.0519416
 H              3.08734   0.871495    1.41294          -0.0432767  0.0716128  0.0956187
 H              3.97487    1.40301    1.10805           0.0688318  -0.265662  -0.134993
 H             0.372403    2.52123    1.13631          -0.0126519  -0.028452   0.219528
 H               1.2961    1.95836    1.42619           0.0187637 -0.0425716   0.044072
 H              2.19567    2.51157    1.11544            0.139053   0.226868  -0.050706
 H              3.08841    1.95391     1.4312            0.044965  -0.134539  -0.102746
 H              4.00093    2.49403    1.12064           -0.212065  0.0217509 0.00350925
 H              0.40631    3.62058    1.14415           -0.121422  -0.137725  -0.156421
 H              1.32601    3.05506    1.44047          -0.0650478   0.033398 -0.0272992
 H              2.19901     3.6072    1.13551            0.144372  0.0188454 -0.0371485
 H              3.09854    3.04165    1.44313           -0.098363  -0.168416   0.177118
 H              4.02546    3.59536    1.16333           0.0625013   0.277317 -0.0169029
 H             0.423456    4.74829    1.18762           0.0474187  0.0680275  0.0442421
 H              1.30186    4.15269    1.45119            -0.10211   0.379489 0.00614591
 H               2.1963    4.71079    1.21057           0.0853915 -0.0183434   0.135387
 H              3.11683    4.12151    1.45123          0.00812904 -0.0361716   0.148966
 H              4.01731     4.6994    1.20344          -0.0318645   0.156543   0.281626
 H             0.448969  -0.321735    2.05534           -0.140613   0.241489 -0.0278521
 H              1.31276   0.294718    2.35903           -0.147815 -0.0632284 -0.0540186
 H              2.23774  -0.294692    2.07068           -0.117543  -0.192947 -0.0796859
 H              3.09863    0.28961    2.34744          -0.0122182  -0.149913  0.0368745
 H              3.96261  -0.287442    2.05305           0.0578924    0.13508   0.147257
 H             0.409245   0.820389    2.03806          -0.0261329   0.174897  -0.219536
 H              1.29872     1.3946    2.37975          -0.0373272  0.0807174  -0.218823
 H              2.19341   0.842903    2.07429           0.0515223  0.0209211  -0.251169
 H              3.08762    1.39404    2.35913          -0.0782694  0.0232797 0.00890065
 H              4.00078   0.832954    2.04533          -0.0127447 -0.0228731   0.159589
 H             0.393631     1.9221     2.0624           -0.190532  0.0320508 -0.0591838
 H              1.31334    2.49129    2.38361          -0.0713096  0.0987424  0.0902856
 H               2.2008    1.95102    2.05926          -0.0412388 0.00225921   0.043694
 H              3.09563    2.47028    2.38437            0.030816  0.0879526    0.11125
 H               3.9958       1.94     2.0757            0.218043  -0.156334 -0.0367124
 H             0.421194    3.04389    2.08858           -0.055993   0.224136   0.141919
 H              1.29471    3.57902    2.40145            0.221894  -0.267572  0.0200423
 H              2.20736    3.03858    2.06804           0.0649535   0.153636  -0.293783
 H              3.11311    3.55657    2.40788            -0.41366    -0.1321   0.035013
 H              4.00521    3.03698     2.0709            0.162831   -0.14574  -0.180346
 H             0.377713    4.15575    2.12649           -0.109973  -0.103981  -0.306324
 H              1.31017    4.67357    2.40545             -0.168096 -0.000643107    -0.109384
 H              2.20202     4.1038     2.1111           0.0488094 -0.0408081  0.0297627
 H              3.07559    4.69418    2.39443           -0.162357   -0.11884  -0.332967
 H               3.9883    4.14716    2.12887           0.0728577   0.342343  0.0602312
 H             0.392637   0.267029    2.98227          0.00440067 -0.0110599  0.0272178
 H               1.2768  -0.308444    3.26756             0.18554 -0.0683729  0.0976304
 H              2.19225   0.298536    3.00074          -0.0654858 -0.0783076  -0.160792
 H              3.09449  -0.295458    3.26278          -0.0185068   -0.13217 -0.0986339
 H              3.98329    0.27866    2.99657            0.0852492 -0.00960899   0.0554696
 H             0.409162    1.36789    3.00978            0.068823   0.258993  0.0417232
 H              1.31391   0.826682    3.30134            0.157343   0.146556 -0.0238093
 H              2.21451    1.39411    3.00277           0.0143296  -0.152802    0.27758
 H              3.07916   0.817711    3.30218          -0.0898761 -0.0986868    0.16333
 H              3.99186    1.37197    3.00785           0.0668447   0.210828  0.0654826
 H             0.398934    2.46581    3.02435            0.128899  -0.121819  0.0388404
 H               1.3214    1.92265    3.32703          -0.0816521   0.178554  -0.217463
 H              2.20663    2.47506    3.01927           0.0324656 -0.0537677 -0.0249806
 H              3.10234    1.93062    3.32686            0.0722085 -0.00254929    0.182105
 H               4.0135    2.48318    3.01814          -0.0622128 -0.0265744 -0.0930435
 H             0.391485    3.58006     3.0563            0.175511  -0.111247   0.210821
 H              1.29466    3.00193    3.35159           0.0525642  0.0385613 -0.0846637
 H               2.1873    3.55277      3.031            -0.186114 -0.00138229    0.238784
 H              3.09875    3.00685    3.37618            0.234434 -0.0989654 -0.0875602
 H              4.00864    3.58172    3.08543            -0.066782   -0.045751 -0.00740694
 H             0.458078    4.74778    3.05389           -0.134653 -0.0281309 -0.0762995
 H              1.32125    4.07513    3.36121           0.0992964   0.101384  0.0846663
 H              2.19719    4.69619    3.05587           0.0201854  0.0313266   0.196575
 H              3.07958    4.08807    3.31492             0.10656   0.224536  0.0805687
 H              3.95572    4.72642    3.06706            0.0250524     0.11808 -0.00691036
 H             0.388683  -0.311399      3.943          0.00494471   0.194529 -0.0158299
 H              1.30846   0.221334    4.23916          -0.0592816 -0.0950647  -0.149036
 H               2.1934  -0.308621    3.89083          -0.0775319  -0.140638 -0.0345422
 H              3.09844    0.24809    4.25553           -0.164775  0.0624608  -0.143115
 H              3.98096  -0.303113    3.94454          -0.0606125 -0.0609739  -0.277978
 H              0.39684   0.810085    3.94415          -0.0599924  -0.122982 -0.0939643
 H              1.30876    1.34647    4.26369           0.0240128  0.0241756 -0.0257393
 H              2.21163   0.813408    3.95227          -0.0228839 -0.0260081   0.128104
 H              3.09079    1.34801    4.28545          -0.0527642 0.00767505  0.0233083
 H              4.01717   0.805333    3.96013            0.134246  -0.111584   0.173153
 H             0.415954    1.91258    3.96504             0.20002 -0.0389234  -0.157831
 H              1.31518    2.46689    4.31999          -0.0976329  0.0658794  0.0950038
 H              2.18515    1.91841    3.98523           0.0511242  -0.105605  0.0901954
 H              3.08314    2.46676    4.31754           -0.110647   0.109699  0.0465422
 H               4.0121    1.90754    3.95006          -0.0429985   0.083167  0.0332874
 H             0.415717      3.025    4.00933           0.0748671  -0.198625  0.0813841
 H              1.32971    3.57797    4.32523          -0.0081114  -0.176747 -0.0380532
 H              2.20071    3.03463    3.97974          -0.0377196 -0.0113321   0.105814
 H              3.07521    3.57804    4.32241          -0.00786067   -0.248232   -0.234889
 H              3.99172    3.02237     4.0286            0.288998    0.08044 -0.0231972
 H             0.416852    4.14754    4.01654            0.255567    0.11806  -0.202628
 H              1.37745    5.05268     3.7288           0.0302978  -0.098773  0.0899962
 H              2.19685    4.17015    4.00018            0.054246  0.0306353  -0.202295
 H              3.01793     5.0046    3.84517             0.141159 -0.00213131  -0.0882239
 H              3.93429    4.18879    4.03611           -0.195813   0.267825  0.0607191
