125

 H             0.803148  -0.622016   0.516513           0.0680938 -0.0122126 -0.0131421
 H              1.33223    0.30706   0.454286          -0.0397718  0.0214274    0.11659
 H              2.12382  -0.510239   0.532678           -0.160185  0.0843263 -0.0825814
 H              3.07478   0.264442   0.475183           -0.0636738 -0.00731771   0.0632211
 H              3.60486   -0.70102   0.566607           -0.128067  -0.177299  0.0827835
 H             0.436484   0.835513    0.11806           0.0953834  0.0996255   0.186938
 H              1.30452    1.39082   0.481536          -0.0124813  -0.133868   0.140551
 H              2.20932    0.83743    0.13367           0.0348951 -0.0829761 -0.0780686
 H              3.10741     1.3911   0.470719           -0.064032  -0.240062 -0.0340206
 H              3.99996   0.803313   0.189623            0.050752  -0.148386  0.0856227
 H             0.409023    1.94732   0.157495           -0.0381888 -0.00991533   -0.276189
 H              1.29503    2.50211   0.470912           -0.187327 -0.0320232  0.0342872
 H              2.18389    1.95228   0.168776            0.106075   0.101308  -0.172107
 H              3.08399    2.49125   0.475395          -0.0894721   0.216208  -0.296621
 H              3.98822    1.96461   0.131071           -0.105399  0.0273303 0.00451711
 H             0.380636    3.05899   0.212169             -0.1538 -0.0292357 -0.0273983
 H              1.30408     3.6184   0.512874          -0.0402634  0.0846873  0.0148583
 H              2.18904    3.08991   0.183999            -0.120667  -0.0271243 -0.00913447
 H              3.09506    3.59565   0.513724           -0.169468   0.170976    0.12832
 H              4.00371    3.06919   0.185211             0.13354  0.0766516 -0.0500514
 H             0.376564    4.16679   0.232195           0.0589488   0.244294   0.032444
 H              1.31641    4.74055   0.535278           0.0536387  0.0685911   0.239296
 H              2.19937    4.19903   0.213731           -0.153923  -0.016736  -0.543179
 H               3.0787    4.73976   0.527188          -0.0408614    0.23406  -0.161909
 H              4.00903    4.18693   0.213423          -0.0577352 -0.0629985   0.150183
 H             0.419553   0.282101    1.06317           0.0470909 -0.0162446  -0.131554
 H              1.32816  -0.236251    1.41128           -0.125053 -0.0239311  0.0518787
 H               2.1944   0.359641    1.13869            0.269002    0.27272 -0.0363547
 H              3.03969  -0.279753    1.43401            0.186421  -0.151103   0.047585
 H              3.97493   0.242213    1.11509           -0.136158  -0.243556   0.151991
 H             0.407719     1.3956    1.09139          -0.0794897  0.0580131 -0.0466995
 H              1.30849   0.861332     1.4269           0.0558615 -0.0735512  -0.179006
 H              2.20239    1.43521    1.10763          -0.0309152  -0.159765  -0.179966
 H              3.11836   0.848462    1.40972            -0.12432   0.100333   0.163566
 H              4.01724    1.39811    1.10973            0.173712  -0.109041 -0.0264543
 H             0.381689    2.48667    1.14634           -0.174607 -0.0572891  -0.122208
 H              1.30522    1.94666    1.42476           -0.0975716 -0.00883022  -0.0254988
 H              2.19817    2.50942    1.11454             0.25151 -0.0861477  0.0959705
 H              3.10917     1.9549    1.42031           0.0156274   0.226448   0.115444
 H              4.01496    2.51439    1.12762               -0.154  -0.0877781 -0.00578533
 H             0.391974    3.60657    1.17568          -0.0156102  0.0855868  -0.145123
 H              1.29372    3.03758    1.43204          -0.0292746   0.185331  0.0295998
 H              2.19946    3.59781    1.15991           -0.106635    0.10344  -0.123048
 H              3.10362    3.03981    1.45302           -0.012334  0.0893549 -0.0429766
 H               4.0013     3.6136    1.16804          0.000849097  -0.0302577    0.280473
 H             0.440045    4.73648    1.19991          -0.0468251  -0.143101   0.270066
 H              1.30575    4.14056    1.45879           0.0375478   0.152958 -0.0770073
 H              2.21524     4.6876     1.2061           -0.111053 -0.0471088  0.0939738
 H              3.11162    4.13864    1.48191           0.0247345  -0.172586 -0.0594271
 H               3.9697    4.74906    1.18837             0.12862  0.0475973  0.0580116
 H             0.441112  -0.294038    2.02895           0.0848846  -0.152222   0.158938
 H              1.30298   0.312759    2.35099           0.0954078 -0.0528298 -0.0634617
 H              2.19539  -0.271392    2.06838            0.093681 -0.0762577  -0.230971
 H              3.08442   0.323946    2.34814            0.171028   0.175443 -0.0168436
 H              3.93983  -0.303205    2.07926           0.0602645   0.143337  0.0941866
 H             0.403631   0.841665    2.05021           -0.189296  0.0226085   0.105712
 H              1.31121    1.39773    2.38566            0.167259  -0.194901  -0.108666
 H              2.18785   0.867161    2.05913           -0.167203  0.0029577   0.123863
 H              3.09484    1.39658    2.36246            0.175083  0.0633573 -0.0673486
 H              4.00972   0.826955    2.05494            0.132289  -0.019471   0.209205
 H             0.416948    1.93542    2.06351            -0.18029  -0.168805 -0.0641498
 H              1.30575    2.49083    2.37789           0.0734838   -0.28148  0.0396713
 H              2.19979     1.9559    2.05302            0.221828  -0.219234  0.0183252
 H              3.08558    2.47697    2.39542            0.074464  -0.016753    0.14624
 H              4.00605    1.95352    2.07186           0.0931655 -0.0376351  -0.106959
 H             0.399403    3.04172    2.10508             0.13958 -0.0345473  0.0604024
 H              1.30537    3.56785     2.3782            0.147664 -0.0234837   0.067584
 H               2.2074    3.03725    2.07009          -0.0412283   0.235992 -0.0408779
 H              3.09991    3.56891    2.38795           0.0178675   0.120068  -0.124228
 H              3.99681    3.05365    2.08333          -0.0109693  0.0653294  0.0218862
 H              0.40239    4.17963     2.1173             0.294455   0.0667235 -0.00294823
 H              1.31493    4.71663    2.40778            0.043614   0.113217 -0.0978124
 H              2.21116     4.1221     2.1188          -0.0534828 -0.0315206  0.0533444
 H              3.06466    4.72127    2.39551          -0.0210881  -0.137582 -0.0291299
 H              4.01584    4.17226    2.13764          -0.00980925   -0.164685    0.088296
 H             0.394655   0.270099    2.97998            0.111821  0.0824893 -0.0380253
 H              1.33218  -0.269926    3.26692            0.100776  -0.103509  0.0541955
 H              2.20731   0.311066    2.97966           -0.248834 -0.0501858 -0.0887298
 H              3.09077  -0.287495    3.22978           -0.203376   0.111496 -0.0413553
 H              3.99067   0.293113    2.98649          -0.0473918  -0.151967  0.0184498
 H             0.400837    1.38776    3.02139           0.0550405  -0.298572  0.0171026
 H              1.30522   0.823652     3.3137            0.053226   0.292244  -0.264099
 H              2.21542    1.38363    2.99122            0.268512   0.495371 0.00700965
 H              3.10682   0.839865    3.32459          -0.0107112 -0.0369918  0.0642712
 H              4.00142    1.37865    2.99953          -0.0658877 -0.0723958  0.0735343
 H             0.419602    2.49244    3.02058           -0.138837  -0.204967   0.186634
 H              1.31393    1.92693    3.32738           0.0940069   0.110835  0.0257057
 H              2.20447    2.46472    3.01365           -0.191664   0.197106  -0.095097
 H              3.11677    1.92495    3.33274          -0.00444376   0.0775161   -0.223868
 H               4.0008    2.47607    3.03192          -0.00770377    -0.15719  -0.0247427
 H             0.414226    3.58846    3.05088            0.0460992   -0.106895 -0.00234687
 H              1.31787    3.00593     3.3491           0.0612952 -0.0360597  0.0166007
 H              2.19974    3.55125    3.02317           -0.096659  -0.387516   -0.16357
 H              3.10416    3.00552    3.31933           -0.128173   0.150388  -0.307898
 H              4.02506    3.59284    3.05108          -0.0786077   0.139827  0.0232748
 H             0.483442    4.73227    3.08577           -0.117685   -0.15586  0.0710136
 H               1.3198    4.08206    3.32489           0.0557084   0.174361   0.135293
 H               2.1992    4.71534    3.05253          -0.0182781  -0.217763   0.220934
 H              3.07291    4.08916    3.30739             0.21073  -0.064229  0.0383508
 H              3.92056    4.74242    3.07297              0.1523   0.264786  0.0535786
 H             0.413964  -0.322917    3.93716           -0.162154   0.090574  0.0526591
 H               1.3051   0.237483    4.23035           0.0659359  0.0396908  0.0794168
 H              2.20263  -0.299936    3.89413           -0.128676   0.169816 -0.0106799
 H              3.08565   0.240399    4.22928          -0.0221742  -0.109741   0.114826
 H               3.9841  -0.303752    3.91885          -0.0729227  0.0592001 -0.0377483
 H             0.383037    0.81464    3.95165            -0.01099 -0.0758772   -0.12794
 H              1.30611    1.33935    4.28799            0.010981 -0.0516593  -0.172795
 H              2.18366   0.820904    3.94961            0.298726  -0.185064   0.170918
 H              3.08091    1.37642    4.28131           -0.102301  -0.120583  0.0256753
 H              4.00353   0.812948    3.96122          -0.0856454  0.0604451   0.146989
 H             0.416225    1.91692    3.98533           -0.176029  0.0348357 -0.0907427
 H              1.30305     2.4592    4.31634          -0.000190511    0.0124835   -0.0790521
 H              2.19863    1.90624    3.95507          -0.0638364   0.222764  0.0778079
 H              3.10036    2.46074     4.3026           0.0645067   0.343265 -0.0655355
 H               4.0004    1.91106    3.97409          -0.0150001  -0.104413  0.0607236
 H             0.405259    3.02665    3.98243           0.0646816   -0.15644   0.131312
 H              1.31378    3.56472    4.31163              0.20304 0.000837054     0.14182
 H              2.20061    2.99155    3.96266          -0.0872672 -0.0501529  0.0221199
 H              3.06221    3.56859    4.29238           0.0397652 -0.0116757   0.106894
 H              4.00155    3.05002    4.00022          -0.0839958   -0.10789 0.00476345
 H             0.465711    4.15303    4.00154           -0.0680723   -0.122825 -0.00713086
 H              1.35689     5.0084    3.79816          -0.0674816   0.101856 -0.0579181
 H              2.19139    4.14663    3.98279          -0.00843352    0.216566   -0.155253
 H               3.0126    4.93628    3.94284            0.155904  0.0749867 -0.0353506
 H              3.89994    4.18598    4.00502           0.0645738  -0.141767  0.0210848
