125

 H             0.778518  -0.645219   0.539407             0.18233 -0.0851642  -0.157239
 H              1.32783   0.297915   0.430157           0.0100916  0.0667454  0.0802281
 H              2.05537    -0.6138   0.659461            0.300407  0.0059954   -0.12819
 H              3.02636   0.269002   0.443025           -0.0135507 -0.00555956   -0.055174
 H              3.65461  -0.614568   0.535454          -0.0308714  0.0198379  -0.379596
 H             0.425216   0.839236   0.131642           0.0150063  0.0812971 -0.0976695
 H              1.29419    1.43114   0.450246          0.00529726 -0.0260227   0.116396
 H               2.1727   0.885615   0.104956          0.00674107  -0.110238  -0.100005
 H              3.07925    1.39245   0.480952            0.024524  -0.149534 -0.0177593
 H              3.97663   0.802436    0.18789            0.061044   0.160352 -0.0232671
 H             0.385163     1.9726   0.129214           -0.103933 -0.0174471 -0.0602341
 H              1.29707    2.52409   0.468852           0.0807926  0.0975197   0.321603
 H              2.21159    1.97582   0.106861          -0.0662025   0.061581  0.0381083
 H              3.12079    2.49558   0.473711          -0.0910816 0.00962225   0.029513
 H               3.9776    1.92194    0.15505           -0.105207 -0.0360652  -0.295558
 H             0.401823    3.08316   0.158611           -0.546199 0.00726958 -0.0310863
 H              1.31732    3.58849   0.500334           0.0338057   0.296991 -0.0599144
 H               2.2096    3.06553   0.143074           -0.131773 -0.0668969  0.0745981
 H              3.11787    3.62285   0.519138             0.16069   0.197021  -0.125654
 H              4.00534    3.06496   0.194365              0.20516 3.55458e-05 -0.00863405
 H             0.454519    4.20216   0.161572           0.0568827  0.0590587  -0.111338
 H              1.35798    4.72526   0.529649           -0.174026 -0.0343183   0.177658
 H              2.21023    4.15887   0.217247           0.0866208   0.143515   0.261982
 H              3.06372    4.71785    0.52831          0.00918674 -0.0382764   0.154454
 H              4.00467    4.19789   0.233958             0.253428 -0.00184916  -0.0345244
 H             0.449982   0.275404    1.06073           -0.118456  0.0182082  -0.199507
 H              1.33779   -0.26548    1.40255           0.0376313  0.0225008   0.166988
 H              2.18095   0.349761    1.11202          -0.0389721   0.092007  0.0650675
 H              3.03074  -0.265966    1.40134           0.0495959  -0.187273   0.206556
 H              3.96162   0.256396    1.13909             0.233321  -0.0387548 -0.00801802
 H             0.402488    1.39549    1.10407           0.0985678 -0.0323089   0.154186
 H              1.30173   0.849173    1.40086           0.0878529  -0.124328    -0.1424
 H              2.18151    1.42789    1.09345           -0.145948   0.015583 -0.0637798
 H              3.08213    0.85555    1.42255          -0.0616412   0.223462   0.012341
 H              3.98159    1.40893    1.12223           0.0956731 -0.0391037 -0.0530964
 H             0.388109    2.48762    1.09813          -0.0532284 -0.0191764   0.133624
 H               1.3006    1.94791     1.4279          -0.0579392 -0.0557837  -0.138095
 H              2.20434     2.5015     1.0885             0.27123  -0.220592   0.184697
 H               3.0839    1.94814    1.43046           0.0154792 -0.0111898  0.0203018
 H              3.99558    2.50021    1.14048            0.119456 -0.0214735 -0.0908608
 H             0.398453    3.60881    1.14043          -0.0512101  -0.243021  -0.261429
 H              1.30274    3.03268    1.44579           0.0476958  0.0419229 -0.0914154
 H                2.211    3.57576    1.12369           -0.044304  -0.129467  -0.132853
 H              3.10841    3.01915     1.4547              0.101459  -0.00280934 -0.000972561
 H              4.00548    3.61849    1.16699          -0.0344701  0.0691085  -0.174068
 H              0.45011    4.73782    1.16208             0.117118 -0.00269791    0.017838
 H              1.30944    4.13364    1.45774          -0.0923697  -0.122238 -0.0948638
 H               2.2026    4.73254     1.2307            0.207263  0.0184215 -0.0307601
 H              3.08352    4.13079    1.47288          -0.0879988  -0.162982 -0.0189699
 H               3.9378     4.7349    1.20615            0.0432389  -0.0522559 -0.00583866
 H             0.459099   -0.28768    2.03121          0.00611577   0.226814   -0.15188
 H              1.31589    0.29863     2.3404            0.349139  -0.181805 -0.0178275
 H              2.19491  -0.266087     2.0822           0.0796164  -0.208166 -0.0288713
 H              3.06556   0.310115     2.3509          -0.0288641  -0.104251  0.0110548
 H              3.89478    -0.3295    2.09955            0.198096 -0.0715019  -0.088848
 H             0.404925   0.838186    2.03916           0.0536035  -0.139858 -0.0784974
 H              1.30681    1.38479    2.36562            0.050633  0.0330533  -0.124058
 H              2.19562   0.864672    2.04319             0.158151 -0.00812732     0.21926
 H              3.08528    1.39581    2.37518           -0.088573  -0.128114  -0.016734
 H              3.97779   0.852344    2.07045           0.0138573   0.101031 -0.0147756
 H             0.400753    1.94332    2.05783           0.0827307  0.0995484  -0.187282
 H               1.2962    2.47556    2.39274           0.0653502  0.0774884   0.197582
 H              2.20164    1.94104    2.06257           0.0843172 0.00937978 -0.0384524
 H              3.09516    2.48099    2.39278          -0.0975168 0.00738571  -0.119894
 H              3.98853    1.94494    2.06699           0.0294307  0.0885351 0.00393296
 H             0.406027     3.0468    2.08204          -0.0232513 -0.0221726   0.105938
 H              1.30174    3.57248    2.40381           0.0737672  -0.256006  0.0643386
 H              2.20398    3.03204    2.06228           0.0128846 -0.0997637   0.166686
 H              3.09637    3.56757    2.39525            0.122501    0.18357   0.107716
 H              4.00043    3.04892    2.08156           -0.300225  0.0199658   0.124009
 H             0.430343    4.14227    2.10694           -0.110775 -0.0958438    0.11588
 H              1.34216    4.68797    2.40161           0.0152941 -0.0312468   -0.19992
 H              2.20177    4.10247    2.10962          -0.0300418   0.293064  0.0468422
 H               3.0737    4.71365    2.38766            0.340723  0.0803924  0.0163755
 H              3.97822    4.14346    2.11111           -0.100441  -0.199783  -0.178359
 H             0.410428   0.271865     2.9846           -0.110239  0.0487448   0.426273
 H               1.3061  -0.309196    3.25574          -0.0449932  0.0645483  0.0568227
 H              2.19411   0.291831     2.9968           -0.0820224 -0.00449039   -0.124513
 H              3.10474   -0.28812    3.24639            0.146965  -0.085477  -0.104756
 H              4.03435   0.308415    3.00081           -0.0916857 -0.00359707   -0.197446
 H              0.41475    1.38941    2.99127           0.0183417 -0.0422401   0.137106
 H               1.3125    0.82931    3.29985           -0.165186 -0.0189448 -0.0543283
 H              2.20431    1.37155    3.00545           -0.113149   -0.12601   0.211974
 H              3.10659   0.832089    3.30368            0.191052   0.169673  -0.154639
 H              4.00711    1.42715    3.00504           -0.219527  0.0911518  0.0625561
 H             0.416492    2.48435    3.03851          -0.0917278   0.142541   0.150942
 H              1.31667    1.91574    3.33789          -0.0774843  -0.105741   0.032007
 H              2.19357    2.46907    3.01963          -0.0693436  -0.204908  0.0180443
 H              3.09565    1.92873    3.33054          -0.0321432  -0.161119    0.35967
 H              3.99702    2.51817    3.01623           0.0702181  -0.131073  -0.175781
 H             0.401759    3.58637    3.06268          -0.0962609   0.158112  -0.138136
 H              1.31545    3.01608       3.36           0.0463026  0.0406877 -0.0956143
 H                2.208    3.56222     3.0485           0.0403919  0.0118201  0.0720654
 H              3.09957    3.00147    3.34325           -0.131178  -0.112762   0.125256
 H              4.00634    3.62479    3.04236          0.00225468  -0.257048 -0.0156505
 H             0.466184    4.72682     3.0866           -0.234249   0.121737   0.115766
 H              1.31756    4.07726    3.35066            -0.235853 -0.00242374    0.115799
 H              2.19974    4.67283    3.05623            0.114439   0.212197 -0.0812407
 H              3.08224    4.09145    3.33606           0.0258479  0.0662812 -0.0435958
 H              3.89467    4.76705    3.09174            0.229707  -0.229252  -0.149717
 H             0.407793  -0.310478    3.94136           0.0918568  -0.123059  0.0748502
 H              1.33037   0.238851    4.22095          -0.0678539  0.0253182 0.00641572
 H              2.20838  -0.320542    3.89924            0.134474  -0.211902 -0.0948664
 H              3.08746   0.261374    4.23574           -0.159017 -0.0241461  0.0677646
 H              3.98591   -0.29945    3.90164          -0.0844037   0.236616 -0.0871835
 H             0.427592   0.804925     3.9594          -0.00450597    0.227599    0.161948
 H              1.31494    1.34421    4.28773           -0.190438  -0.216122   -0.23657
 H              2.21083   0.820895    3.93764           0.0271229 -0.0500503  0.0536364
 H              3.10755    1.37684    4.26582          -0.0343527 -0.0667615 0.00679681
 H              3.99593   0.842477    3.95372          -0.00459768    0.176097   0.0310005
 H             0.426655    1.89893    3.98667           0.0429859   0.117523   0.324058
 H              1.32145    2.46023    4.31598             0.07989  0.0967947   0.120886
 H              2.19873    1.92149    3.97216           -0.310189 -0.0787468 -0.0637737
 H              3.09566    2.46808    4.28921          9.71305e-05    0.137114    0.162663
 H              4.01127    1.95388     3.9699           -0.176707 -0.0876995 0.00477364
 H             0.444187    3.01248    4.00861             0.16309    0.26822   0.225474
 H              1.34105    3.58969    4.33361           -0.212216   0.119925  -0.112969
 H              2.20886    3.01603    3.98667          -0.0150137   0.145058 -0.0749976
 H              3.06362    3.57937    4.31361             0.269591 0.000724315 0.000447708
 H              3.99453    3.08391    3.98811           -0.144113   -0.11266  0.0835923
 H             0.455321    4.13554    4.02769           -0.290068   0.271487  0.0201043
 H              1.46638    4.96514    3.93223           -0.100448  0.0189652  -0.143016
 H              2.20019    4.13713    4.00144           -0.103616  0.0992801   0.129751
 H              2.93362    4.97037    3.91886            0.032561  0.0436676  -0.235798
 H              3.91953    4.21882    4.04024             0.0406637 -0.000469248    0.0685621
