125

 H             0.797021  -0.619138   0.512761            -0.46947  -0.118617   0.221089
 H              1.33687   0.324826   0.448015             0.154371   -0.100858 -0.00797853
 H              2.11757  -0.531863   0.553601          -0.0641178  0.0718942  -0.279077
 H              3.07811   0.295376   0.473671            0.225885  -0.079406   0.158315
 H              3.62531  -0.620111    0.54837           0.0822692   0.299271  -0.106071
 H             0.404978   0.845852   0.123345           0.0673044 -0.0777391   0.234447
 H              1.29674    1.40357   0.451519            0.111261 -0.0137002  -0.309522
 H              2.22905   0.868088   0.121914            0.0230743   -0.121849 0.000125084
 H              3.11465     1.4112    0.46358          -0.0569624  0.0264019 -0.0858483
 H              3.99163   0.823733   0.137972           -0.191127  -0.216555  -0.185238
 H             0.398626    1.97805   0.126904             0.06647  0.0168481  0.0586863
 H              1.29652    2.50009   0.474237          -0.0491082  -0.037685 -0.0954042
 H              2.19523    1.95071   0.145964           -0.195941  0.0364378  0.0761394
 H              3.10888    2.50628   0.484242            0.219416  0.0981758  -0.053553
 H              4.01631     1.9638   0.165204            0.270923   0.029485   0.128081
 H             0.388671    3.10237   0.149981          -0.0851424 -0.0496232  -0.136603
 H              1.29554    3.60257   0.502059               0.16288 -0.000779556    -0.171106
 H              2.20375    3.07279   0.158131          0.00340718 -0.0945019    0.11253
 H              3.08176    3.60318   0.506071           0.0242844 -0.0497795 -0.0831392
 H              4.03755    3.06642   0.188519           0.0976202  -0.195366 -0.0986396
 H             0.409918    4.18362   0.199574           -0.324564   0.135278   0.279609
 H              1.31642     4.7449   0.541435          -0.00473055   -0.111845    0.255109
 H              2.17202    4.17133   0.192304           0.0911061   0.236743  0.0927157
 H              3.05672    4.72045   0.551195          -0.0204483   0.040229   0.071265
 H              3.94409     4.1824   0.179273           0.0290597  -0.100299   -0.18425
 H             0.417318   0.307496    1.07535            -0.15734   -0.10225   0.107064
 H              1.32205  -0.231826    1.39637           -0.0155928   0.0174728 -0.00277084
 H              2.20162   0.345902    1.12992            0.048126  0.0748264  -0.232899
 H              3.06911   -0.24056    1.41997          -0.0212376   -0.14111 0.00632889
 H              3.99983   0.269996    1.11061            0.143504   0.203559  0.0533231
 H             0.393252     1.4088    1.08677          -0.0374894  0.0869024  0.0841271
 H              1.30145   0.869629    1.42363          -0.0777881  0.0082322 -0.0103633
 H              2.20532    1.40781    1.08706           -0.152844  -0.124158 -0.0307737
 H               3.1035   0.877604     1.4354           0.0283429  0.0506738 -0.0797072
 H              4.02389    1.38517    1.11543          -0.0555653  -0.378361 -0.0259663
 H             0.385357    2.53969    1.09917           -0.016217   0.324275 0.00408442
 H              1.30888    1.93368    1.42714           -0.146254 0.00757728  -0.174583
 H              2.20653    2.50704    1.10653            0.291389  -0.258273 -0.0820033
 H              3.10366    1.95171    1.43663           0.0308856   0.159005   0.118717
 H               3.9996    2.48813     1.1387            0.136672   0.146305 -0.0287471
 H             0.386438    3.63424    1.14589              0.219062 -0.000518821    0.0634219
 H              1.29773     3.0255    1.43736            0.207157  -0.276741 -0.0115966
 H              2.19523    3.59081    1.12747          -0.0860055   0.110413  -0.113369
 H              3.09177    3.03862    1.43798          -0.0654113  -0.191673  -0.183904
 H               3.9991    3.59603    1.13095             0.16634  0.0972235 0.00178311
 H             0.421578    4.74326    1.18938             0.27938  -0.121021  0.0221141
 H              1.29409    4.13333    1.47409            0.046233    0.15916  -0.175781
 H              2.17003     4.7182    1.23886             0.268308 0.000295938   0.0547148
 H               3.0854    4.12426    1.47086           0.0711339 -0.0559487   -0.03894
 H              3.95126    4.72378    1.16848           0.0847873  0.0511228   0.174118
 H              0.43022   -0.27351    2.03988           0.0321897  -0.048774   0.118582
 H              1.31224    0.30552    2.36075            0.308103  0.0106167  0.0736371
 H              2.18829  -0.272853    2.06171           0.0888067  -0.117313  0.0089397
 H              3.08814   0.319069    2.37184           -0.183469  -0.160906  -0.136185
 H              3.95346  -0.309512    2.07758           -0.110379 -0.0129008  0.0974623
 H             0.404605   0.850277    2.02656            0.139257  -0.163341  -0.123876
 H              1.30839    1.37593    2.37991          -0.0698907   0.123814  -0.121727
 H              2.20408   0.868684    2.06374             0.14592   0.142096  -0.116567
 H              3.11691     1.3868    2.38335          -0.0145464 -0.0753677  0.0885933
 H              3.99752   0.838008    2.06806          0.00893308   0.240151 -0.0509261
 H             0.404524    1.95395    2.05104           -0.386524  0.0859817 -0.0999152
 H              1.30921    2.47297    2.38408          0.00369151 -0.0944062   0.147221
 H              2.21649    1.93287    2.07206          -0.0820342 -0.0235016  -0.170371
 H              3.10206    2.47857    2.39874           -0.139656 0.00670774   0.129488
 H              4.01701    1.95155    2.07785           -0.225173   0.135357  -0.324671
 H             0.397819     3.0494     2.0859            0.142072  0.0233934  0.0883949
 H              1.29181     3.5648    2.38511          -0.0719243  -0.129899  0.0552526
 H              2.19646    3.01855    2.07273            -0.13457  0.0103035   0.128019
 H              3.09402    3.56672    2.39631           -0.117216  0.0714104 -0.0276094
 H              3.98917    3.04365    2.10227          -0.0396029  -0.151367  0.0272558
 H             0.411481    4.16759      2.124           0.0547593 -0.0948092  0.0612452
 H              1.33365    4.71367    2.37838           0.0967869   0.141307   0.200135
 H              2.19161     4.0939    2.11032           -0.132884   0.030582  0.0448328
 H              3.05234    4.70452    2.39991            0.139677  0.0406568    0.16409
 H              3.97068    4.15779    2.10452          -0.0320883 -0.0734115  0.0462864
 H              0.38186   0.288871    2.99969           0.0206602  0.0554075 -0.0599111
 H              1.31514  -0.268515    3.26836            0.258176  0.0726582   0.114273
 H              2.19626   0.279561    3.00617            -0.11691  -0.171581 -0.0797373
 H              3.07863  -0.308793    3.27759            0.108827  0.0915394   0.125561
 H               3.9955   0.288049    3.00924           0.0887338  -0.174515  -0.159246
 H             0.396581    1.38847     2.9989          -0.0847431   0.252094  0.0449001
 H              1.30154   0.821241     3.3224          -0.0397004    0.10684  0.0969348
 H              2.20701    1.37476    3.00986          -0.0888821  -0.101125  -0.110012
 H              3.09638   0.806599    3.33536          -0.0621454   0.209527    0.15716
 H              3.99051    1.37173    3.02876           0.0315911   0.099198  0.0756827
 H             0.400687    2.49381    3.02322           -0.142502 -0.0516291  0.0704154
 H              1.31632     1.9166    3.32521           0.0183994  -0.155906  -0.154862
 H              2.20026    2.46304    3.00894             0.16888 -0.0737744  0.0284913
 H              3.10305    1.92692    3.32636          -0.0485381   0.045065  -0.118046
 H               4.0146    2.48322    3.03519          -0.0678988   0.303205  0.0307519
 H             0.382625    3.58375    3.06142            0.104848  0.0391216 -0.0351227
 H              1.29939    3.00159    3.33885           -0.126588 -0.0684134   0.103388
 H              2.20455    3.54777    3.02802           0.0011903   0.103586 -0.0151076
 H              3.11406    3.01688    3.34763           0.0711499  -0.114245 -0.0504005
 H              4.00425    3.60191    3.04448            0.238539 -0.0334322  -0.126938
 H             0.456497    4.71983    3.05057           -0.024302  0.0174277  -0.080137
 H              1.33171    4.08149    3.30647           -0.167596  -0.141347  0.0917001
 H              2.20154    4.71125    3.06975          -0.0035559   0.147808 -0.0395365
 H               3.0795    4.09738    3.33007           0.0441125  0.0452663   0.175162
 H              3.90075    4.76101    3.07536           -0.110837   -0.22531  0.0393913
 H             0.419036  -0.295967     3.9453          -0.0950955   0.205778   0.106448
 H              1.31979   0.252488    4.28588            0.182734 -0.0833884  0.0297383
 H              2.20012  -0.316057    3.93946          -0.0437087  -0.355876  -0.157756
 H              3.08838   0.244266     4.2885           0.0829469  -0.062932  0.0101466
 H              3.98983  -0.314835    3.92523           0.0424076   0.313971  0.0460502
 H             0.411005     0.8178    3.95851          -0.0217112 -0.0524828  0.0915696
 H              1.31466    1.34979    4.28993            0.237651  0.0537014   0.147028
 H              2.21455   0.792393    3.96202           -0.125627   0.179504   0.174633
 H              3.09717    1.35695    4.28221          -0.0663664 -0.0817045  0.0045691
 H              3.99716   0.808085     3.9811           0.0218239  0.0572547  0.0394239
 H             0.430347    1.90653    3.94824            0.140154  0.0682051  0.0738253
 H              1.32484    2.45575    4.30361           -0.209638   0.116759  -0.129479
 H              2.21141    1.91767    3.95363           -0.390844 -0.0786763 -0.0634674
 H              3.10704    2.46656     4.3206              0.1324 -0.0224596  0.0905134
 H               3.9918    1.90544    3.96048          -0.0169272  0.0809356   0.128569
 H             0.412197    3.02818     4.0112              0.13285   -0.257286 -0.00695355
 H              1.32723    3.55462    4.28408           -0.135015  0.0280814 -0.0612924
 H              2.20849     3.0045    3.96133           0.0614208   0.270105  -0.210355
 H              3.07728    3.56944    4.29134           -0.171572 -0.0235242  -0.173342
 H              4.00486    3.02071    3.98602           -0.279587  -0.199201  -0.146416
 H             0.489954    4.15416     3.9907            0.134756 -0.0524223   0.153648
 H              1.40026    4.95566    3.88714           -0.381005  0.0364157  -0.108919
 H              2.20266    4.13628    3.99697             0.015471 0.000477139    0.120054
 H              3.02457    4.95107    3.93393           -0.110905   0.227135 -0.0109985
 H              3.93603    4.17236    3.99827           0.0149398 -0.0313649  0.0303464
