125

 H             0.792242  -0.617792   0.526129           -0.022195 -0.0538112  0.0155775
 H              1.33435   0.308464   0.431398          -0.0355684  -0.282404 -0.0195129
 H                2.098  -0.573508   0.618997            0.166629 -0.0204544  -0.100146
 H              3.04708   0.275334   0.449227           -0.215786  0.0364984  0.0939135
 H              3.60546  -0.648571   0.551892            0.090455   0.137445   0.096504
 H             0.438263    0.84894   0.111271           -0.245948   0.189529 -0.0261756
 H              1.29003      1.409   0.487692            0.233099   0.036488   0.110362
 H              2.15855   0.871513   0.105747            0.0913517 -0.00116164  -0.0492708
 H              3.09892    1.39977   0.475437           0.0737852   0.019926  0.0102538
 H              3.97696   0.824841   0.155902           0.0803034  0.0469228  0.0384761
 H             0.404633    1.96703   0.135539            -0.11911   0.157819 -0.0459841
 H              1.32102    2.50169   0.466858           -0.342807  0.0116666  0.0411552
 H              2.20911    1.97529   0.121145          -0.0500112   -0.01432  -0.110185
 H               3.1253    2.50283   0.468586           -0.253721  0.0312627   0.019184
 H              4.03115    1.95651   0.170918          -0.00354822   0.0764129   0.0510327
 H             0.435351    3.05868   0.130378           -0.201524  0.0861616  0.0558436
 H              1.30546    3.60935   0.512174          -0.0577073  0.0386915  -0.205235
 H              2.20516    3.05761   0.193369           -0.0340693 -0.00149818   -0.255759
 H              3.10469    3.59717   0.507709          -0.0653659 0.00959231  0.0350701
 H              4.01087    3.06392   0.183125           0.0761804  -0.164114 -0.0457524
 H             0.383157    4.18465   0.231701          -0.0977105  0.0295034  0.0417427
 H              1.33598    4.70489   0.528202           -0.076637 -0.0383051  0.0199677
 H              2.21129    4.16141   0.215594            0.113007  -0.147145  0.0741112
 H               3.0733    4.77094   0.575914            0.152788  0.0153207  -0.091418
 H              3.96802    4.20095   0.217322           -0.077629  -0.102431  0.0108529
 H             0.431543   0.295569    1.08096           -0.143844    0.09996   -0.21379
 H              1.31431  -0.236363    1.42101            0.362875   0.147027   0.191309
 H              2.18585   0.343572    1.11715            0.164114  -0.347755  0.0899897
 H              3.02856  -0.280412    1.41845          -0.0673894 -0.0849107  -0.440602
 H              3.95949   0.261178    1.09852            0.155845 -0.0110451  0.0448895
 H             0.353571    1.41083     1.0925           0.0469757   0.125814  -0.146798
 H              1.28947   0.870478    1.41213            0.151237 -0.0277184  0.0148557
 H               2.2023    1.42631     1.1002            0.168277  -0.130844  -0.178906
 H              3.08377    0.84974    1.40963          -0.0054957  0.0420234   0.025049
 H              4.00332     1.4019    1.10598           0.0523579  0.0314605  -0.062263
 H             0.409099    2.50685    1.09056           -0.149036 -0.0839337   0.305846
 H              1.29088    1.96033    1.43418           -0.130451  -0.260276   0.141905
 H              2.20535      2.494    1.11425          -0.00153681   0.0344842   0.0821494
 H              3.11021    1.94536    1.42819           0.0402612   0.066652  0.0312362
 H               4.0098    2.50939    1.13076            0.253063 -0.0707057  0.0438011
 H             0.416829    3.58413    1.14967            0.313727  0.0829129 -0.0846855
 H              1.31067    3.02675    1.45216           0.0638792     0.1783 -0.0694611
 H              2.20402    3.59882    1.15252            0.140767    0.12232  -0.299153
 H              3.08925     3.0371    1.43701          -0.0546433  -0.335711   0.112228
 H              3.99856    3.60229     1.1479            0.163389  0.0382583  -0.142465
 H             0.454339    4.72078    1.21432            0.165168  -0.232795  0.0307106
 H              1.30275    4.12339    1.47107           0.0904699   -0.22998  0.0537504
 H              2.17244    4.74207    1.22747          -0.0119672  0.0664178  -0.097013
 H              3.09285    4.14034    1.47719            -0.26691 -0.0637793   0.105374
 H              3.98939    4.72362    1.19735           0.0377517 -0.0599716  0.0227779
 H             0.430955  -0.291588      2.026          -0.0488278  -0.216043  -0.105615
 H              1.31669   0.306024    2.34725           0.0838263 -0.0587505   0.186248
 H              2.18944  -0.285624    2.06524            0.106696  0.0925257 -0.0795055
 H              3.09025   0.290486    2.33337            0.149627   0.226313  -0.145807
 H              3.97829  -0.300685    2.04355           -0.222694  -0.235424  0.0787621
 H             0.389475   0.846067    2.04331           -0.115287 -0.0327717  -0.232667
 H              1.30708    1.38607    2.37385            0.178291 -0.0768771 -0.0528505
 H              2.19316   0.847189    2.05119            0.277039  0.0134121  -0.143603
 H              3.08965    1.38218    2.37821           0.0325377  0.0369678 -0.0541921
 H              3.99885    0.83451    2.04046          -0.0686609  -0.137234  -0.135711
 H             0.388237    1.96524    2.04476          0.00844901  0.0944499 -0.0787219
 H              1.30541    2.47927    2.39908          -0.0191771  0.0299027  -0.018409
 H              2.20917    1.93425      2.054           -0.0212185    0.182477 -0.00610595
 H              3.09631    2.46857    2.37884          -0.0509765  -0.146428 -0.0651818
 H              3.99494    1.94025    2.06117           -0.177665 -0.0399742  -0.205664
 H             0.418564    3.02472     2.0844           -0.137663   0.149223   0.391252
 H              1.29427    3.55714    2.38511           -0.272297 -0.0189951 -0.0239947
 H              2.21642    3.02526    2.06918           0.0926256  0.0497427    0.13045
 H              3.09068    3.56441    2.39646          -0.0343265 -0.0791978    0.30111
 H              3.98975    3.04966    2.07875           -0.0683208 -0.00841546     0.11882
 H             0.407159    4.11798    2.12393           0.00832902  -0.0248822 -0.00498427
 H              1.32947    4.71547    2.39046           0.0303783  -0.187397  0.0225649
 H              2.20654    4.11784    2.12142           0.0232198   0.214547  0.0386427
 H              3.08777    4.71384    2.40803            0.214214  -0.137112 -0.0417554
 H              3.97364    4.15635    2.13278          -0.0515285   0.259756 -0.0204487
 H             0.443151   0.281577    2.99506              0.20458 -0.00275119   0.0885267
 H               1.3256  -0.283717    3.24863           -0.107038 -0.0894352  0.0664118
 H              2.21192   0.296931    2.99684          -0.0790408  0.0877297  0.0370631
 H              3.09182  -0.291124    3.27324           -0.188606   0.268513   0.118542
 H              3.98599   0.287699    3.00139           -0.318859  0.0280349   0.108281
 H             0.406028    1.38769    3.01035            0.147516  0.0399518  -0.116832
 H               1.3057    0.83184    3.31427          -0.0630096 -0.0296649   0.152759
 H              2.20785    1.37933    3.01572           0.0223857  -0.177163 -0.0294358
 H              3.09744   0.829798    3.31804           -0.311703  -0.127465   0.125933
 H              3.99107    1.38233    2.99783           0.0619721  0.0592338  -0.153928
 H             0.414098    2.48335    3.03799             0.16339 -0.0693323  0.0075311
 H              1.30505    1.91642    3.33106          -0.0046956   0.153664 -0.0732433
 H              2.19859    2.46931    3.01923            0.268603   0.182178  0.0476834
 H              3.10085    1.93155     3.3333          -0.0483618   0.234375 -0.0512202
 H              4.00029    2.50472    3.01146           0.0844295   0.198272 -0.0626756
 H             0.376301    3.58283    3.07363           -0.311776  -0.159154  -0.161698
 H              1.31838     3.0016    3.35029           0.0204765  0.0213123  0.0867391
 H              2.19842    3.55479    3.03245            0.201391  -0.066276 -0.0221439
 H              3.10376    3.00366    3.34777           0.0145189  0.0259164  -0.113328
 H              3.98551    3.58885    3.06784            -0.077588 -0.00941831   0.0239356
 H             0.468321    4.73968    3.06688          -0.0320546   0.123572 -0.0134581
 H              1.32415    4.08323    3.30404           -0.155646   0.021948 0.00657818
 H              2.20436    4.71844    3.06014           -0.0576141   0.0214306 -0.00990789
 H              3.07338    4.09426    3.33077           -0.110164  -0.271341   0.148197
 H              3.93573    4.72084    3.09288            0.174165   0.132707  -0.022363
 H             0.448282  -0.310274    3.93773           -0.228796  0.0150855 -0.0915674
 H              1.31003   0.246312    4.23946           -0.104693 -0.0270718   0.126444
 H              2.19297  -0.324597    3.92383          -0.0714493 -0.0163019  0.0303147
 H              3.10195    0.25474    4.24304          -0.0572771 -0.0108803 -0.0826534
 H              3.99869  -0.280379     3.9192          -0.0133618  0.0622509 -0.0217702
 H             0.422104   0.818807     3.9607            0.250915  -0.196711   0.116479
 H              1.31018    1.35481     4.3187           -0.0584736   -0.125087 -0.00472281
 H              2.20429   0.790968    3.96333           0.0508332   0.102663  0.0431927
 H              3.10461    1.36667    4.28318          -0.0759349  0.0660851   0.168422
 H              4.02693     0.8351    3.94293            0.155157   0.101795  -0.179471
 H             0.404883    1.92557    3.96795           0.0660472   0.101759  0.0337025
 H              1.30264    2.45569    4.31591          -0.0696313  0.0421846 -0.0168786
 H               2.1967     1.9146    3.96171           0.0258663    0.05047 -0.0329954
 H              3.08133    2.46735    4.30536           0.0176651   0.115634  0.0808775
 H              3.99183    1.94278    3.97128          -0.0114586  -0.240882   0.173151
 H             0.421952    3.02458    3.99793          -0.0654391  0.0845308  0.0159462
 H              1.33548    3.58262    4.30458            0.312033   0.119941 -0.0410754
 H              2.20162    3.02694    3.98034           -0.0446552  -0.0329756 -0.00830463
 H              3.07576    3.58572    4.31866          -0.0507654  -0.238851  0.0608114
 H              3.98823    3.03811    4.00172           0.0497732  0.0885008 -0.0623073
 H             0.457619    4.15306    3.99247           0.0785095  0.0558568  0.0849608
 H              1.38218     5.0066    3.80516           -0.157705 -0.0306768  0.0601475
 H              2.19772    4.15311    3.99418           0.0446165  0.0497598   0.307893
 H              2.98807    4.96673    3.89771          -0.0265448   0.140343  -0.109617
 H              3.91505    4.19469    4.03766           -0.146231 -0.0178747 -0.0169033
