125

 H             0.755922  -0.646216   0.537834           -0.155509   0.262005   0.135349
 H              1.31776   0.308445   0.464317           -0.169827 -0.0182095   0.134194
 H              2.25872  -0.579449   0.634194            0.109325  0.0502123  0.0173689
 H              3.04723   0.290346   0.467866           -0.130253  -0.257096 0.00176446
 H              3.66416  -0.607165   0.530685           -0.131357 -0.0233822   0.166114
 H             0.391086     0.8246    0.14005          0.00385516   0.119275   0.247673
 H              1.29577    1.41499   0.454008           0.0691744 -0.0750963  -0.185387
 H              2.18399   0.869315   0.136564            0.271565   0.174335  0.0225786
 H              3.07745    1.42347   0.479334           -0.125079  -0.176325 -0.0240427
 H              3.95839   0.806808   0.168116           -0.216882  -0.088105    0.14347
 H             0.388888    1.95308   0.146335            0.111483  -0.042819  -0.169325
 H              1.29565    2.51659   0.482868            0.126831 -0.0542568  0.0750039
 H              2.18937    1.97675   0.150182           0.0888679  0.0327176  0.0102204
 H              3.10539    2.51481   0.463129          -0.00940714  -0.0975093  -0.0385572
 H              3.98158    1.96103   0.131718          -0.0906714  0.0644594 -0.0787938
 H             0.394025    3.07358    0.18052          -0.0526577   0.173545  0.0250729
 H              1.31922    3.61311   0.493815          0.00110696 -0.0324721  -0.049705
 H              2.22074    3.07271   0.167862           0.0253942   0.169988   0.110279
 H              3.11107     3.6105   0.498246           -0.148596  0.0469717   0.185907
 H              4.01543    3.07477   0.173077            0.165992  0.0468831    0.16713
 H             0.436115    4.18407   0.195844          -0.0117831  0.0605965    0.10082
 H              1.33664    4.72008   0.508068          -0.0733716  -0.215238  -0.036692
 H              2.21045    4.19254   0.189241            -0.13677  0.0759156  0.0174763
 H              3.08455    4.73648   0.532289           -0.165577 -0.0992774   0.108907
 H              4.00803    4.21891   0.252568            0.195874  0.0573298 -0.0651494
 H             0.405507   0.268426    1.10248          0.00587229 0.00405514 -0.0877578
 H              1.33222  -0.244474    1.41296           -0.170423  0.0505644 0.00313803
 H              2.19292   0.350703    1.14026            0.199266   0.174694   0.206539
 H              3.05299  -0.288673    1.40629          -0.0806978  0.0650774 -0.0437199
 H              3.97522    0.27036    1.11508          -0.0594391 0.00751261 -0.0482149
 H             0.393721    1.40607    1.09106           -0.034457  0.0353843  -0.233386
 H              1.29061   0.874684     1.4167           -0.159866  -0.115315   0.225405
 H              2.19112    1.40983      1.112             0.11372  -0.100236  -0.218862
 H               3.1214   0.852325    1.41031           0.0270452  0.0275815  -0.178864
 H              4.03872    1.39435    1.07946            0.196749 -0.0520037   0.292177
 H              0.40799    2.52308    1.13486            0.169417   0.108617  -0.142458
 H              1.30685    1.94339    1.42486            -0.129548   -0.197816 -0.00507685
 H              2.20382     2.5017    1.11708            0.165834  -0.120589  -0.109693
 H               3.1162     1.9378    1.42884           -0.270986 -0.0513097  -0.115623
 H              3.99022    2.49227    1.10563           0.0646415   -0.10224  0.0551756
 H             0.392582    3.61891    1.16131          -0.0342737  -0.271404  -0.135174
 H              1.29883    3.04252    1.46838            0.104206  0.0725709  0.0927898
 H              2.20192    3.59406    1.14386          -0.0230081  0.0435186 -0.0507121
 H              3.09904    3.03717    1.44206            0.340957 -0.0695324 0.00114987
 H              3.99501    3.60856    1.17309           0.0640394   0.147507  0.0295936
 H             0.426656    4.70809    1.16515            0.154615  0.0394572   0.107278
 H              1.31217    4.13774    1.46655          -0.0478411  0.0133539  0.0940008
 H              2.18482    4.72292    1.19964          -0.0721325   0.022099   0.156374
 H              3.08788    4.11399    1.46286           0.0394851  0.0912593 -0.0491013
 H              3.94358    4.73411    1.22267           -0.222683 -0.0556718   0.102749
 H             0.444252  -0.289989    2.05505          9.00207e-05   -0.393276   -0.210076
 H              1.28811   0.350809    2.36478          -0.0251452  0.0295036  0.0687463
 H              2.18278  -0.279048    2.08198          -0.0118084   0.135078  0.0601847
 H              3.08944   0.304455    2.33349            0.224911 -0.0203262  -0.307818
 H              3.96124  -0.291193    2.08171            0.209024  0.0890354 0.00559184
 H             0.350798   0.836472    2.04014            0.113934  -0.200661  0.0688249
 H              1.29918    1.41175    2.37195           -0.103659  0.0228165   0.197467
 H              2.19986   0.871114    2.06568           -0.119496   0.107979  -0.255405
 H              3.10071     1.3811    2.37021          0.000965392 0.000441175   -0.109135
 H              4.02362   0.848949    2.04481          -0.0802098   0.214607  0.0460466
 H             0.388812    1.92379    2.06435           -0.134222  0.0236698  -0.234895
 H              1.29142    2.48037    2.39792            -0.10892  -0.190479  0.0350101
 H              2.19804    1.94568    2.06731           0.0621436 -0.0576532    0.14434
 H              3.09331    2.48184     2.3877          -0.0644637 -0.0817425  -0.103861
 H               3.9849    1.94384    2.04975          -0.0390153  -0.125336   -0.08512
 H             0.410662    3.03976     2.0905           -0.138589  0.0675303  -0.132077
 H              1.29585    3.57454    2.40467            -0.118206 -0.00877052   -0.110707
 H              2.19801    3.03744      2.072          -0.0170825 -0.0269938  -0.122377
 H              3.11035     3.5628    2.38594          -0.0773144  -0.117681  -0.118972
 H              4.01636    3.04328    2.10408           0.0109529 -0.0254842   0.406736
 H             0.413954    4.16217    2.13606           -0.247381  0.0997754  0.0838777
 H              1.32695    4.72228    2.42092            0.235769 -0.0597902  0.0528342
 H              2.18696    4.13836    2.11768          -0.0717231  0.0637103  -0.196034
 H              3.06541    4.71974    2.41083          0.00372598  -0.105371 -0.0775389
 H              3.98831    4.15751    2.13477           0.0646229   0.106416   0.142342
 H             0.382277   0.285363    2.98188             0.04928  0.0933477  -0.240177
 H              1.30045  -0.264949    3.25317           -0.110957   0.215176 0.00229639
 H              2.19562    0.29935    2.98829           0.0990244   0.139241  0.0365502
 H              3.07741   -0.29532     3.2258            0.336148  0.0727299  -0.283162
 H              4.00154   0.280672    3.00394          -0.0454028  0.0551496   0.367515
 H             0.413326    1.37878     3.0026          -0.0386803 -0.0707396    -0.1307
 H              1.29989   0.832034    3.30445           0.0895949  0.0195289   0.025243
 H              2.22043    1.39839    3.02005            -0.110218   -0.274318 -0.00392477
 H              3.11077   0.828727    3.30126            0.113752  0.0722403 -0.0121143
 H              3.99855    1.39776    2.99927          -0.0345226 -0.0216496  -0.022329
 H             0.398299    2.46679    3.01946          -0.0492178  0.0675463  0.0996516
 H              1.30467    1.91962    3.34042          -0.0144164  0.0911793   0.153882
 H              2.20465    2.47949    3.01943             0.0272587   -0.0593977 -0.000382067
 H              3.10284    1.91519    3.33638           0.0987835   -0.04788   0.176425
 H              3.99129    2.47731    3.03432           0.0602856  0.0238446  0.0517663
 H             0.386965    3.57971    3.05923           -0.0184704 -0.00374087   0.0252658
 H              1.30776    3.00067    3.36549          -0.0268204 -0.0390103   0.106432
 H              2.19953    3.55031    3.01891           0.0760628  -0.161747  -0.270169
 H              3.09893    3.01697    3.34182             0.133938 -0.00454322   -0.231596
 H              4.01674    3.57725    3.07742          -0.0268728  0.0564679  -0.107125
 H             0.466044    4.71415    3.07913            0.021019   0.155774 -0.0759167
 H              1.31917    4.08241    3.33548           0.0766926 -0.0050775   0.194133
 H              2.20443    4.69341    3.07537            -0.0166753 -0.000681771     0.159805
 H              3.08341    4.08081    3.33189           -0.113605 -0.0104619 -0.0560908
 H              3.93481     4.7204    3.07714          -0.0860391  -0.050351  -0.311793
 H             0.420959  -0.346868    3.89862           -0.0763587    0.266899 -0.00552891
 H              1.31002   0.231252    4.25748          -0.0234615  -0.163082  0.0729717
 H              2.19597  -0.317916    3.92642          -0.0568239   -0.14727   0.165699
 H              3.09356   0.234503    4.23862           0.0819754   0.218249 -0.0431848
 H              3.99004  -0.330736    3.88745          -0.0216198 -0.0900676 -0.0722915
 H             0.402186   0.787365    3.95455            0.140779  0.0499047  0.0691607
 H              1.31186    1.34748    4.29442           -0.107259  0.0685553  0.0201421
 H              2.20586   0.819709    3.94162          -0.0622566 -0.0489986  -0.148353
 H              3.10105    1.33596    4.28116           0.0924978  -0.217491   0.136805
 H              4.01829   0.801966    3.93898           0.0746086  0.0759266 -0.0799075
 H             0.435875    1.89883    3.96314           0.0425483 -0.0526833 -0.0645335
 H              1.33072    2.45653    4.30967          -0.0611328   0.174736  0.0841491
 H              2.21786    1.92135    3.97431          -0.0930419  0.0775511 -0.0175074
 H              3.08352    2.46378    4.30664           -0.187437  -0.107519  0.0543998
 H              3.97776    1.91104    4.00737             -0.139231 -0.000720799    -0.181003
 H             0.421106    3.01842     3.9944             0.09898  0.0757904  0.0402481
 H                1.321    3.56311     4.3242           0.0226981  -0.185101   0.186795
 H              2.19345    3.01901    3.97188          -0.0915441  0.0215289   0.192163
 H              3.06961    3.56135     4.3084           -0.022192 0.00472747  -0.169557
 H              3.99533    3.04053    4.01434           0.0119911   0.389204  0.0630766
 H             0.473187    4.14948    4.02382           -0.163407  -0.290948 -0.0541781
 H              1.35328    5.10695    3.67807             0.14583   0.171193  0.0302946
 H              2.20361     4.1312    4.00123           0.0751299  0.0697242  0.0602974
 H              2.99635    4.99564    3.83361           0.0593475 -0.0275528  -0.119747
 H              3.93885    4.17287     4.0405            0.308313  -0.113762 -0.0912871
