125

 H             0.783582   -0.63058   0.570842          -0.00760857    0.117703    0.139081
 H              1.37198   0.297884   0.469318           -0.201514  -0.180697   0.120188
 H              2.21526  -0.572962   0.643209             0.105255 -0.00168899    0.157772
 H               3.0589   0.269408   0.434814           -0.187363 -0.0828554 -0.0212182
 H              3.58695  -0.669287   0.541779             0.188687 -0.00963458    0.235671
 H             0.470971   0.833951   0.125418            0.0784515  -0.0829397 -0.00155276
 H              1.31645    1.42165    0.46468            0.194278    0.15531 -0.0431334
 H              2.21843   0.873643   0.131691           -0.132425 -0.0296106  -0.102037
 H              3.11969    1.38811   0.455117             0.20442  -0.121264   -0.17497
 H              4.00245   0.793434   0.154865          -0.0475858  -0.116668  -0.148398
 H             0.379991    1.95346   0.139191          -0.0415866  0.0460663   0.108044
 H              1.30049    2.50866   0.495915          -0.0954131  -0.208908  -0.175573
 H              2.21552    1.96626   0.139077            -0.194858   0.0131008 -0.00743686
 H              3.12681    2.50538   0.471139           -0.027256 -0.0811104   0.201418
 H              4.02864    1.95775   0.132286           0.0675613  -0.202398  0.0227224
 H             0.404125    3.08356   0.164574          -0.0640493  -0.178383   0.216675
 H              1.28859     3.6019   0.514144           0.0341103 -0.0719967  0.0494908
 H              2.20181    3.06942   0.180351           -0.043848 -0.0672295 -0.0118943
 H              3.09212    3.61768   0.502934          -0.0328984  -0.102027 -0.0723971
 H              3.98806     3.1005   0.152694           0.0559056 -0.0257093  0.0904582
 H             0.387333     4.1833   0.229354            0.255466   0.222932  0.0388311
 H              1.27902    4.71683   0.561752           0.0962545  0.0682438   0.174074
 H              2.17548     4.1725   0.236046            0.130266  0.0219344 -0.0298282
 H              3.05842    4.72928   0.568772          -0.00627359   -0.129712  -0.0220322
 H              3.99166    4.22589   0.244804           -0.190837   0.101833  -0.313734
 H             0.420818   0.292126     1.0838           -0.164998  0.0468461   0.169585
 H              1.36613  -0.283406    1.40281           0.0381535  0.0530815 -0.0205959
 H               2.2139   0.352606    1.14227           0.0772448  0.0684074  -0.058125
 H               3.0489  -0.268382    1.41351           0.0148126   0.197003   0.129158
 H              3.96412   0.262266    1.11582           0.0185839   0.114638 -0.0940223
 H             0.407984    1.39632    1.07511           0.0182891  0.0266893  0.0324392
 H              1.30026    0.86616    1.40925           0.0763376  -0.169997   0.081124
 H              2.21101    1.42003    1.09954          -0.0204321  -0.105027  -0.044407
 H               3.1076   0.868936    1.41003           0.0442615 -0.0707812   0.079626
 H              4.00661    1.37202    1.09527           -0.283863  -0.136793   0.232308
 H             0.409448    2.50875    1.10402           -0.142192  -0.121646 -0.0852778
 H              1.31335     1.9554    1.43357           0.0638358  0.0207346  0.0869584
 H              2.20705    2.50529    1.11152            0.234593  -0.248494  -0.050136
 H              3.11464    1.94245    1.41079             -0.11525 0.000625663  -0.0209675
 H                4.035    2.49181    1.10648          -0.0072193 -0.0985185  -0.025619
 H             0.386571    3.59991    1.15246            0.058549  0.0315841 -0.0252675
 H              1.32006    3.04345    1.45447           -0.185711  0.0650572   0.131505
 H              2.19855    3.60686    1.14199            0.113405   0.114202   0.219218
 H              3.09655    3.02681    1.42546          0.000602779    0.286792    0.174947
 H              3.98589    3.62173    1.12119            -0.068507 -0.00742419 -0.00910349
 H             0.402145    4.75052    1.20498            0.220356    0.17742 0.00853872
 H              1.29605    4.13546    1.47383           -0.106157 -0.0753102  -0.156004
 H              2.17507    4.72646    1.22251           -0.109595  0.0484276  0.0551126
 H               3.0806    4.12069    1.48193          -0.0525481 -0.0768124  -0.220561
 H              3.94433    4.75002    1.23414             0.32832    0.13707   0.102188
 H             0.456036   -0.28605    2.02687            0.165528   0.138252 -0.0327794
 H              1.31156   0.304225    2.34182          -0.0342362  -0.199732  0.0658815
 H              2.21016  -0.287954     2.0967          -0.0954327  -0.157273  0.0601789
 H              3.09218   0.319444    2.35304           -0.109786 -0.0971961 -0.0643809
 H              3.91635  -0.302329    2.08015            0.150552   0.486279  -0.393785
 H             0.416618   0.827209    2.00898           -0.148863  -0.110168  -0.096113
 H              1.30738    1.38756    2.37668            0.259068 -0.0888986  0.0459411
 H              2.21401   0.856977    2.07038           0.0129079  0.0590223  -0.295447
 H              3.09021    1.39065    2.35931            -0.14962    0.11464  0.0205758
 H              4.01389   0.834241    2.05748           -0.218211  0.0763691   0.124498
 H             0.400085    1.92402    2.05777          -0.0223806   -0.12536   0.101172
 H              1.31881    2.47893    2.39423           -0.170638   0.115357 -0.0383553
 H              2.21139     1.9485    2.05896          -0.0957043 0.00940058 -0.0600184
 H              3.10301    2.48722    2.35954           0.0348654  -0.173976 -0.0047517
 H              3.98179    1.92047    2.04341           0.0193977  -0.225013  0.0450638
 H             0.403515    3.02969    2.07687          -0.0908318  -0.160256    0.16041
 H              1.30082    3.55611    2.39571          -0.0333682    0.14487  0.0589604
 H              2.21435    3.04394    2.07777          -0.0838492  0.0187014  0.0843674
 H              3.10748    3.57008    2.38354           0.0667317  -0.113754  -0.196156
 H              4.02041    3.03789    2.06623             0.33175   0.194841  0.0900627
 H              0.39041    4.14779    2.13179           -0.123885  0.0482621  -0.221693
 H              1.31589    4.70288    2.39918            0.153808   0.210068 -0.0434817
 H              2.18497    4.12474    2.13179            0.125565   0.305583 -0.0246466
 H              3.08158    4.71273    2.38624           -0.136082   0.193275  0.0369706
 H              3.99166    4.14994    2.10778            0.139101   0.118384 -0.0428817
 H             0.394132   0.292396    2.97396          -0.00298487      -0.137  -0.0438646
 H              1.29458  -0.280825     3.2695            0.120376 -0.0185107 -0.0891225
 H              2.18609   0.301633     3.0077          -0.0437541   0.315205  0.0834133
 H              3.04558  -0.282556     3.2426            0.209376   0.102061 -0.0769719
 H              4.00193   0.248272    2.99422            0.186015  -0.134028 -0.0354909
 H             0.408031    1.38774    2.99816           0.0586376    0.08594  -0.083441
 H              1.29557   0.816233      3.315            0.196484   0.141694  -0.274484
 H              2.19737    1.39375     2.9986          -0.0775157 -0.0107584  0.0257746
 H              3.07499   0.836079     3.3208            0.128248 0.00268247  0.0309524
 H              3.96824    1.36355    3.00804             -0.1136   0.036855 -0.0320039
 H              0.40279    2.49113    3.01381            0.141557  -0.161593 -0.0409097
 H              1.29559    1.91475    3.34613          -0.00888687    0.153418    0.287903
 H              2.21413    2.47349    3.01139           0.0908632 -0.0383194  0.0884006
 H              3.09936    1.92571    3.32628          -0.0337601 -0.0944273  0.0914358
 H              4.00756    2.46923    3.01338          -0.0648627   0.101626  0.0469895
 H             0.388925    3.59474    3.06115            0.102051  0.0755291  -0.187878
 H               1.3072    3.00883    3.34314          -0.0882327   0.204661    0.22034
 H               2.2194    3.55863    3.03848          -0.00564924   -0.114363   -0.230457
 H               3.1204    3.01692    3.32006          -0.0984797  0.0336869  -0.060511
 H              4.00365    3.59166    3.03705           -0.112754 -0.0820708 -0.0407686
 H             0.441586    4.69797    3.09209            0.219403   0.147388 -0.0160638
 H              1.34135    4.08581    3.31348            0.233215  -0.091152   0.160924
 H              2.19276    4.72649    3.06743          -0.0711034   -0.10831  0.0112512
 H              3.08706    4.10873    3.32219           0.0534914   0.114115  0.0469285
 H              3.96795    4.71549    3.06953           -0.309212  0.0983767 -0.0275563
 H             0.388489  -0.310172    3.90239             0.10576 -0.0180351   0.104033
 H                1.268   0.246849    4.24631           -0.239887 -0.0222399  -0.100857
 H              2.18625  -0.281483    3.93115          -0.0141405  -0.157177 -0.0607208
 H              3.08215   0.260245    4.25027          -0.0351502   0.034316 -0.0323444
 H              3.95977  -0.312338    3.92803          -0.0105606   -0.13864  -0.103516
 H             0.363837   0.813521    3.93815          -0.00659898   -0.143415   -0.164248
 H              1.30139    1.36656    4.29532          -0.0796249 -0.0773145 -0.0640089
 H              2.18371    0.85251    3.95512           -0.211033   0.146475  -0.180796
 H               3.0925    1.38238    4.29562           -0.145636  0.0723653   0.042121
 H              4.00472   0.806317    3.95653          -0.0114242  0.0135841  -0.126443
 H             0.418751     1.9172     3.9624            -0.13047  0.0722625 -0.0358838
 H               1.3151     2.4714     4.3086           -0.166046  -0.240155  0.0380355
 H              2.18388    1.94525    3.96411          -0.0275261  -0.270428   0.179837
 H              3.07611    2.45865    4.30397          -0.0857934 -0.0116488  -0.191595
 H              4.00697    1.90922    3.96598           0.0543498  0.0397174 0.00514287
 H             0.411807    3.02769    3.99823            0.477812  -0.108101  0.0318843
 H              1.36538    3.57303    4.33619          -0.0816362  0.0599251  -0.100993
 H              2.21069    3.02354     3.9801          -0.0828154  0.0608876   0.202434
 H              3.09108    3.55892    4.30413           0.0633741  0.0114724 -0.0124714
 H              4.00801    3.02518    3.97402           -0.162122   0.207545   0.169196
 H              0.50002    4.15964    4.03586           -0.0345806 -0.00299438  -0.0392852
 H              1.42221    4.96804    3.87704           -0.166564  -0.180745   0.091029
 H              2.22119    4.14773    3.99083          -0.00865504   0.0762798  -0.0847787
 H              2.91176    5.03243    3.87916           0.0403835 -0.0908688   0.115979
 H               3.9401    4.16106     4.0226            0.115264 -0.0695183 -0.0389754
