125

 H             0.803448  -0.664226   0.545665           -0.165358 -0.0115217   -0.19373
 H              1.32397   0.305887   0.448944           0.0321766  0.0341645 -0.0904059
 H               2.1269  -0.479585   0.507481          -0.0180867  -0.103339   0.183226
 H              3.07544   0.281939   0.471532           0.0289744  -0.157131  0.0893667
 H              3.62786  -0.685813    0.57848            0.039766   0.126006 -0.0910984
 H             0.409589   0.816919   0.163852            0.046435  0.0545668  -0.180224
 H              1.29455    1.40325   0.460309            -0.24678   0.166775   0.049155
 H              2.20098   0.852639   0.166251          -0.0391288  -0.159882  -0.124942
 H              3.10578    1.43013   0.478098            0.110811   0.131041   0.038063
 H              4.02047   0.832388   0.190121            -0.121956 -0.00597783  0.00896495
 H             0.390066    1.95917   0.177573             0.250619 -0.00496349  0.00331653
 H              1.30052    2.50532   0.478265             0.22955 -0.0783599 -0.0725281
 H              2.21147    1.97228   0.150938            0.284077  0.0370214  0.0670369
 H              3.10112    2.51659    0.50615          -0.0502489  -0.012182 -0.0844376
 H              4.00862    1.96994   0.176269           0.0103844   -0.34177   0.377323
 H             0.407172    3.05261   0.158185              0.10544 -0.00229835   -0.171251
 H              1.31917    3.60244   0.515837           0.0934316  -0.188485  0.0152592
 H               2.1947    3.06667   0.182086           0.0647539 -0.0149441  0.0978798
 H              3.08515    3.62112   0.494833           0.0390059 -0.0105586  -0.111311
 H               3.9721    3.08834   0.161061          -0.0417531 -0.0108179  0.0213258
 H             0.426456    4.15428   0.227426           -0.234797  -0.171687  0.0479544
 H              1.32477    4.72747    0.55883           -0.148816  0.0875322  0.0281958
 H               2.1816    4.17807   0.193655          -0.0688624   0.140737   0.204157
 H              3.06254    4.72532   0.562592            0.102189  0.0378729   0.149276
 H              4.00282    4.22618   0.265993          0.00401841   -0.29179   0.183525
 H             0.409871   0.255825    1.08791           -0.273807   0.236615  -0.103173
 H              1.33254  -0.285613    1.39957           -0.302577  -0.105792 -0.0272141
 H              2.18642   0.341935    1.15786          -0.0991807  -0.241598   0.179431
 H              3.02739   -0.27088     1.4072            0.151528  0.0272711  0.0905092
 H              3.95375   0.252699    1.12373             0.0067926 -0.000220485    0.0100464
 H             0.389083    1.40357    1.09449          -0.0363094   0.011048   0.124812
 H              1.28585   0.843735    1.39299          -0.0438111 -0.0413246  -0.048023
 H              2.20799    1.41979    1.10582            0.191972 -0.0373545 -0.0370267
 H              3.09695   0.869818    1.40359          -0.0417293 -0.0324412   0.163028
 H              4.02277    1.40642    1.12969           0.0314108  0.0932047  -0.078988
 H             0.386587    2.51559    1.11714          0.00792069  0.0228209 -0.0949434
 H              1.29436     1.9506    1.42531           0.0379512  0.0743258   0.191595
 H              2.19809    2.51065    1.10293          -0.0164585   0.217148  -0.059528
 H              3.10695     1.9548    1.43075           0.0437745  0.0231608   0.160865
 H              4.01226    2.50316    1.14462            0.253765  -0.171336  0.0522381
 H               0.3996    3.61209    1.15707            0.206878   0.114446 -0.0294425
 H              1.30689    3.05042    1.46437            0.230174  0.0827806 -0.0806289
 H              2.19839    3.58458    1.14957           0.0370319  0.0602508   0.130636
 H              3.10839    3.04017    1.44245           0.0726588  0.0611782 -0.0545484
 H              4.01025    3.61091    1.15281           -0.176136  -0.057434  -0.113434
 H             0.412126    4.73037    1.18876           0.0361486  -0.220739  0.0436372
 H              1.29441    4.14435    1.47315           0.0744431  0.0307359   0.160486
 H              2.20041    4.71481     1.2166           -0.052061  -0.134377  -0.102376
 H              3.08452    4.11169     1.4598           -0.0469627 -0.00146057   -0.309889
 H              3.91308    4.77035    1.24613          -0.0264116 -0.0692153   0.322014
 H             0.443422  -0.288397    2.05237           -0.147112   0.199812 -0.0344062
 H              1.31764   0.316352    2.32661           0.0298806  -0.015708  0.0014268
 H              2.19145   -0.28896    2.07697           -0.179643   0.119903  -0.288173
 H              3.07191   0.317897    2.34148            0.182687  0.0593586  -0.123267
 H              3.91377  -0.346668    2.09828           -0.115233 -0.0809829  -0.157445
 H             0.397889   0.844899    2.03424          0.000688487    0.198617    0.279939
 H              1.29784    1.40062    2.36011           -0.207716  0.0663206  -0.297293
 H              2.20114   0.891154    2.06153           0.0186017  -0.031712   0.209621
 H              3.09469    1.41542    2.36947            0.0760475 -0.00955572    0.202549
 H              3.98551   0.831708    2.06222             0.122447  -0.0193176 -0.00553125
 H             0.407016     1.9353    2.06341             0.0299931 -0.000995415    -0.275001
 H                1.306    2.48528    2.39923           0.0944003  0.0973555  -0.116504
 H              2.20649    1.96045    2.05244           -0.0380443 -0.00118591   -0.129409
 H              3.10788    2.48676    2.38494          -0.0246283  -0.239993 -0.0329274
 H              4.00217    1.92618    2.07559           0.0968491  0.0828337   0.129816
 H             0.409477     3.0493    2.08915           -0.0843131    -0.10649 -0.00257412
 H              1.31124    3.57471    2.42002           -0.218361  0.0882735   0.191563
 H              2.20519    3.03745    2.07704            0.109742  -0.051682   0.267112
 H              3.10553    3.56204    2.39263          -0.0586563  0.0156602   0.148719
 H              3.99744    3.03509    2.07971            0.156196  0.0322229   0.153771
 H             0.410124    4.13997    2.11981          -0.0146999  -0.112707    0.13415
 H              1.32334    4.69786    2.42275           -0.222546 -0.0633428 -0.0666822
 H              2.18919    4.11114    2.10819          -0.0404337   0.196464  -0.135171
 H              3.06799    4.70116    2.36714          0.00481846  0.0156215 -0.0487573
 H              4.01967    4.14851    2.12554           0.0428639  -0.360229  -0.064444
 H             0.390462   0.294325    2.96791           -0.208857 -0.0927051   0.192821
 H              1.29062  -0.283951    3.20817           0.0127983 -0.0300973  0.0400786
 H              2.19255   0.298825    2.98402            0.174696  0.0813338    0.29302
 H              3.08519  -0.289929    3.23104            0.232931   0.223874  -0.247419
 H              3.99109   0.284971    3.01099           -0.270236  0.0129416 -0.0687778
 H             0.388677    1.37745    2.99377          -0.0988824   0.105709  0.0768571
 H              1.30188   0.825242    3.30408          6.86127e-05    0.209086   0.0190763
 H              2.20263    1.39583    3.00739          -0.00372746   0.0271181   0.0419304
 H              3.10507   0.836179    3.30977           0.0584284  -0.105147  0.0328333
 H              3.99681    1.38346    3.01758           0.0772399  0.0644889 -0.0440663
 H             0.403439    2.46347    3.03376           -0.165875   0.178349   0.159999
 H              1.30444    1.91858    3.32396          -0.0363441 -0.0602586   0.207034
 H              2.20849    2.47743    3.00491           -0.145911 -0.0600529   0.307374
 H              3.10482    1.93222     3.3329          -0.0777686  0.0569287  0.0535081
 H              3.99573    2.48104    3.02057           -0.151946  0.0209516 -0.0334977
 H             0.409991    3.56993    3.05151          -0.0138507 -0.0155507   0.148112
 H              1.31022    2.99459    3.35507          -0.0469134  -0.244736  -0.152805
 H              2.21866    3.55159     3.0239          -0.0197152 -0.0291548  -0.124311
 H              3.10418    3.00417    3.33569             0.14798   0.121545   -0.16055
 H              4.02157     3.5971    3.06139           0.0896957  0.0716102  -0.155125
 H             0.442446    4.67426    3.08488          -0.0369931 -0.0871284   0.130208
 H              1.34427    4.05677    3.36526           -0.046611   0.179233 -0.0433498
 H              2.21202     4.6728    3.04388           0.0592837  0.0652912  -0.293861
 H              3.09276     4.0734    3.33546           -0.209907  0.0781461  -0.255689
 H              3.92996    4.72901    3.08535            0.0532003 -0.00112239   0.0450302
 H             0.431795   -0.30265    3.89103            0.066408  -0.135392  -0.228374
 H              1.32433   0.242177    4.21987           0.0713879  0.0166199 -0.0274332
 H              2.18858  -0.352293    3.88505            0.165093 -0.0777435  -0.287082
 H              3.07756   0.233747    4.22469           0.0314934  0.0564783   0.208222
 H              3.99206  -0.297067    3.91532            0.234732   0.132322 -0.0111282
 H             0.421231   0.799641     3.9335          -0.0920461 -0.0863871   0.192737
 H              1.30506    1.35473    4.29735           -0.150249  -0.158681  -0.319166
 H              2.19631   0.826892    3.93751           0.0094092 -0.0189086  -0.255583
 H              3.08903    1.36456     4.2879            0.185277   0.059352 -0.0971025
 H              3.99953   0.810676    3.97066            0.168948   0.129659  -0.125446
 H              0.40482    1.90541    3.99662            0.182935 -0.0679234   0.179859
 H              1.32702     2.4594    4.31029           -0.0958447 -0.00495206   0.0316962
 H              2.19645    1.93535    3.95761           0.0431272   0.137616  0.0498121
 H              3.09321    2.48236    4.31781          -0.0997862 -0.0314621 -0.0876365
 H              3.98283    1.91766    3.97707          -0.0953709   0.156567 -0.0344801
 H             0.415526    3.01634    3.98621          -0.0525803  0.0675839   0.234858
 H              1.33818    3.55296    4.33723          -0.0320678  0.0520448 -0.0603564
 H               2.2213    3.03784    3.96482           0.0119716 -0.0559042  -0.289201
 H              3.08309     3.6021    4.32008          -0.00492522  -0.0275067  -0.0657201
 H              3.97866    3.05869    3.98705           -0.130831  0.0653579  0.0484487
 H             0.489318     4.1515     4.0315            -0.12938  -0.039089   0.101997
 H              1.42388    5.03829     3.7518           -0.163794  -0.191512  0.0569254
 H              2.21439    4.16615    4.00686          0.00963909  0.0629608  -0.267067
 H              3.00369    5.05697    3.70996            0.136525  0.0482186  0.0566492
 H              3.95394    4.17348    4.03339            0.170461  -0.130217 -0.0491219
