125

 H             0.744002   -0.63633   0.576683          -0.0713641  0.0977026 0.00293017
 H                1.335    0.28033   0.459416           -0.169863  0.0983693  0.0696555
 H               2.1824  -0.597786   0.624989           0.0156934  0.0326944 -0.0818034
 H              3.06987   0.295752   0.471176          -0.00948505   0.0937802   0.0479682
 H              3.64869  -0.612808   0.521408            0.096299   0.124785  -0.129726
 H             0.422365   0.813634   0.153048           0.0760966  -0.150269  0.0508138
 H              1.27773    1.40175    0.47115           -0.227174 -0.0707106    0.12392
 H              2.18653   0.863856    0.12905           -0.152698  0.0232367    0.29911
 H              3.06743    1.41666    0.47246           0.0674591  -0.125254  0.0537136
 H              3.96718   0.848465   0.119643           -0.153725  0.0319433 -0.0506773
 H             0.365695    1.95849   0.144987            0.107673   0.103518 -0.0018996
 H              1.28954     2.4928   0.489925            0.245826 -0.0361871  -0.213363
 H              2.19332    1.97196    0.12344           -0.108346   0.196836  -0.157929
 H              3.08031    2.50818    0.49616           -0.104332  -0.103184  0.0654512
 H              3.95193    1.94785   0.134627           -0.160348  0.0647648  -0.109645
 H             0.394752    3.08407   0.167792           0.0398774    -0.1581  0.0261984
 H               1.3075    3.61111   0.512592             0.10592 -0.0520667  -0.144966
 H              2.18198     3.0684    0.17638          -0.00489087    0.130622   -0.375577
 H               3.1056    3.59519   0.524139          -0.0442949   0.159469   0.100433
 H              3.98677    3.07039    0.13491           0.0707007 -0.0042341   0.134537
 H             0.428223    4.19002   0.201674            0.243332   0.138475 -0.0725507
 H              1.32051    4.74549   0.528324            0.239429   0.225708 -0.0797997
 H              2.20726    4.18081    0.24085           -0.0810655  -0.0688152 -0.00950005
 H              3.10043    4.71141    0.53235            0.169324  -0.201043 0.00818794
 H              4.02457    4.18428   0.221608           -0.151153 -0.0892934  -0.333086
 H             0.433488   0.273587    1.10769           0.0357635  0.0955964  0.0840682
 H              1.37109  -0.273895    1.43142           0.0777651   0.127028 -0.0900403
 H              2.19517   0.349929    1.12192           -0.148178  -0.237713   0.224653
 H              3.07549  -0.266092    1.40295          -0.00345761    0.050819   -0.172782
 H              3.97796   0.290532    1.08574           0.0735784  0.0323733  -0.142559
 H             0.394055    1.39275    1.09608           0.0762695  -0.242426  -0.247109
 H              1.30688   0.857821    1.42604           -0.262759  0.0382109  0.0559051
 H              2.19238     1.4217    1.10139            0.025096  0.0116016  0.0121505
 H              3.10347   0.871579    1.41602            0.128201   -0.17737  0.0192581
 H              4.00039    1.41109    1.09791           -0.151404  -0.229642  -0.013394
 H             0.413805     2.5076    1.11705           -0.146997 0.00355727  0.0159629
 H                 1.31    1.95376    1.43137           0.0340559  -0.034716  0.0110122
 H              2.19632    2.50709    1.12261          -0.00267109    0.138728    0.128532
 H              3.10231    1.95971    1.43139           -0.081625  -0.154146  0.0775938
 H              3.99069    2.52078    1.10333          -0.0765587 0.00237249   0.138662
 H             0.406171    3.61095     1.1191          -0.0246883  -0.227026  -0.099245
 H              1.30704    3.05348    1.43165            0.127323  -0.165791  0.0625672
 H              2.20378    3.61551    1.15698           0.0979554   0.131579  0.0580536
 H              3.09531    3.04332    1.44197          -0.00257883   -0.164353  -0.0753072
 H              4.01906     3.6047    1.15874           0.0962812  0.0540023  -0.142592
 H             0.422173    4.77041    1.17559            -0.048622 -0.00765912  -0.0313319
 H              1.31055    4.14522    1.45111           -0.143753   0.136624   0.155357
 H              2.20817    4.76078    1.21094          -0.0826813 -0.0593898 -0.0996624
 H              3.08613    4.14283    1.47654            0.106919  0.0809992 -0.0541472
 H              3.98004    4.74429    1.21743          -0.0454022   0.182281  0.0565093
 H             0.468717  -0.289898    2.06687            0.248012  0.0207102  -0.136555
 H              1.32586    0.30226    2.35931          -0.0678959   0.153633   0.189539
 H              2.23933  -0.265827    2.08049            0.151708  0.0977563  -0.160292
 H              3.11063   0.326849    2.34304           -0.188529  -0.331854  -0.212288
 H              3.97065  -0.290576     2.0872            0.136692   0.209745   0.204449
 H             0.395982   0.850262    2.03352           0.0386818   0.034995  -0.154322
 H              1.29469    1.39362    2.38884           0.0385081  0.0807109  0.0636936
 H              2.19704   0.865079    2.05266           -0.112122   0.148536 -0.0543813
 H               3.1024    1.40598    2.37959            -0.16584   0.115592 -0.0248542
 H              4.01203   0.843176    2.04211          -0.00580558  -0.0338278    0.115894
 H             0.390282    1.92358    2.05427           0.0784001   0.013211 -0.0712345
 H              1.27632     2.4799    2.37668          -0.0654623   0.219819   0.247761
 H              2.18972    1.94259     2.0738          -0.0367597  -0.226635   0.252499
 H              3.12162    2.48654    2.39491            0.213314  -0.020931 -0.0633046
 H              4.01942    1.94438    2.04546            -0.243091    0.132407 -0.00304125
 H             0.397582    3.04523    2.05999           -0.178578 -0.0899814  -0.293198
 H              1.28742    3.56632    2.38772           0.0382939 -0.0190609  -0.149582
 H              2.21808    3.01829    2.07546          -0.0598459    0.28603   0.253846
 H              3.10993    3.56305    2.39696           -0.105754 -0.0527316 0.00411638
 H              4.02232    3.03039    2.08496             0.154587   0.0940969 -0.00435145
 H             0.407716    4.15866    2.10631          -0.0986111  -0.137593 -0.0238931
 H              1.32936    4.69391    2.39689            0.115166 -0.0569465  -0.144705
 H               2.2064     4.1209     2.1071          0.00278912  0.0128644  -0.035739
 H              3.07754    4.72229    2.40792              0.14512 -0.00195576   -0.263374
 H              3.98871     4.1602    2.13457          -0.00214985  -0.0694226    0.134871
 H             0.398822   0.300286    3.00254            -0.102137    0.038789 -0.00236604
 H              1.28909  -0.273984    3.24643           0.0488198 0.00879846   0.223309
 H              2.20453    0.29878    2.99129           0.0150071  0.0387319 -0.0859575
 H               3.0823  -0.284947     3.2562          -0.0688794   0.113823  -0.270732
 H              4.02227   0.289473    3.00536            0.367856   -0.16217 -0.0539664
 H             0.396856    1.37878    3.01039          -0.0176261 -0.0391767 -0.0348379
 H              1.29221   0.839672    3.31809           0.0369161 -0.0415637 -0.0250167
 H              2.19346    1.38647    3.02251          0.00243591  -0.200641  0.0522462
 H              3.10284   0.842655    3.30773            0.227324   0.127222   0.157196
 H              3.98998    1.39012    2.98879          -0.0036414   0.103037   0.065332
 H             0.383635    2.47524    3.01543            0.186018 -0.0878104   0.126984
 H              1.30791     1.9232    3.34703            0.222369  -0.064791   0.177736
 H              2.20243    2.47102    3.00825           -0.157039 -0.0197524  -0.163688
 H              3.10011    1.92888    3.34031           -0.164666   0.101862   0.148517
 H              4.00749    2.48559     3.0227           0.0263834   0.105496   0.133765
 H             0.399991    3.57704    3.02533          -0.0848655   0.141501   0.334044
 H               1.3159    3.01045    3.33195            0.131796  0.0752675   -0.16983
 H              2.20238    3.55526    3.01986            -0.29321   -0.21072   0.121872
 H              3.10561    3.00617    3.35806           -0.115746 -0.0146516   -0.10121
 H              4.01808    3.57899    3.05779             -0.160206 -0.000771935     0.117092
 H                0.416    4.71707    3.05748            0.029036   0.120639 -0.0488023
 H              1.30957    4.08937    3.32501            0.128719  0.0146904   0.486883
 H               2.2057    4.67213    3.04349           0.0767718   0.107083   0.035271
 H              3.09661    4.08895    3.32688           0.0569795   0.189305  -0.135418
 H              3.93937    4.70587    3.08377           -0.102436  -0.209143  0.0057691
 H             0.430377  -0.315516    3.93699           0.0499266 -0.0875918   0.109814
 H              1.30017   0.249733    4.26405          0.00783009 -0.0442191  -0.228267
 H              2.17299  -0.306054    3.90201            0.137983  0.0838651   0.192941
 H              3.07258   0.251209    4.24522           0.0854723 0.00955043 -0.0702189
 H              3.95477  -0.301518    3.91278           0.0310927    -0.0428 -0.0128272
 H              0.38271   0.809079    3.96928            0.068145 -0.0956606 -0.0824872
 H              1.29613    1.36023    4.28398              -0.183  0.0895262  0.0302324
 H              2.20306   0.809524    3.96702          -0.0720396    0.11274   -0.03518
 H              3.09143    1.35564      4.279             -0.202085    -0.165463 -0.000890977
 H              4.00079   0.811337    3.96426           0.0132664  0.0511758 -0.0955646
 H             0.384941    1.90956    3.94651            0.143925   0.157487  -0.116397
 H              1.29306    2.45876    4.28805           -0.176605  0.0346263   0.272022
 H               2.1928    1.90724    3.97015            0.151298  -0.283948   0.112338
 H              3.08008     2.4501    4.31862          -0.0664418  0.0288752   0.180625
 H              3.99902    1.90974    3.97039          -0.0263818  -0.206568   0.191535
 H             0.420014    3.01922     3.9696           0.0924796 -0.0737992 -0.0444983
 H              1.32795    3.57409    4.29729           -0.154875   -0.13082   0.011079
 H              2.19609     3.0105    3.96214          -0.0170214   0.118972    0.14601
 H              3.07659    3.54899    4.32149          -0.00235427   -0.193495   0.0343612
 H              3.99954    3.01912    4.00305            0.149139  -0.131052 -0.0555007
 H             0.435075    4.12678    4.00727          0.00293568     0.1784    -0.2562
 H              1.51353    4.95641    3.93086            -0.141648 -0.00551503  -0.0160707
 H              2.23323    4.12486    3.97981            0.151118  0.0219366  -0.117701
 H              2.92465    5.00718    3.87083          -0.0877432   -0.28604  0.0261277
 H                3.934     4.1407    4.02825            0.032054   0.197307 -0.0955313
