125

 H             0.793435  -0.648132   0.558703            0.292795  -0.458455   0.186193
 H              1.33604   0.289432   0.449212             0.12681  -0.110858   0.178096
 H               2.1539  -0.605513   0.646803             0.19107  -0.175431  -0.116436
 H              3.07714   0.332411   0.450564           -0.106106 -0.0343274 0.00735087
 H              3.62463  -0.609622   0.542017          0.00302319 -0.0318669  -0.101811
 H             0.409366   0.841616   0.140443           -0.179777   0.133779   0.151358
 H              1.29395    1.39917   0.489552           0.0567935  -0.172753  -0.209394
 H              2.20886   0.893385   0.148478           0.0794839   0.132008  -0.104418
 H              3.09586    1.42321   0.497017            0.158098   0.089172  0.0253937
 H              3.96106   0.874868   0.113304            0.454598 -0.0402453  0.0204152
 H             0.355624    1.96112   0.176725           0.0791911 -0.0969882    0.12699
 H              1.29292    2.49454   0.493628          -0.00450911  -0.0752693 -0.00808884
 H              2.18591     1.9506   0.150845           -0.191963 -0.0527809 -0.0117578
 H              3.07969    2.50537   0.499037          -0.0768513 -0.0565274 -0.0912403
 H              3.98874    1.97751   0.164983          -0.0510929 -0.0802855 -0.0321061
 H             0.406526    3.09472   0.192068            0.0162313    -0.10399 -0.00340675
 H              1.30775    3.64416   0.468609          -0.0106346   0.103194  -0.161659
 H              2.19814     3.0531   0.150073            0.150139  0.0623175 -0.0199715
 H              3.08152     3.5916   0.487446          -0.00670007   -0.137251   -0.125245
 H              3.93131    3.06422   0.126827          -0.0763558 -0.0948906 -0.0136551
 H              0.43724    4.24545   0.211083           0.0134058   0.161194   0.104063
 H               1.3493    4.77273   0.533684           0.0752675 0.00487694  0.0197995
 H               2.2061    4.18262   0.223718            0.111056 -0.0664484 -0.0849505
 H              3.10274      4.739   0.532216           -0.256044   0.126655    0.12992
 H              3.97624    4.18022   0.172813           0.0853583  0.0490595  -0.106178
 H             0.449886   0.271393    1.09101           -0.100878  -0.127148 -0.0881423
 H              1.36488  -0.276218    1.40709            0.001388 -0.0227933   0.146974
 H              2.20802   0.370403    1.11348          -7.78286e-06   -0.0322067   -0.0219799
 H              3.05024  -0.251474    1.39002            -0.14966 -0.0410804   0.257288
 H              4.00257   0.293995    1.06696            0.119442  0.0720442 -0.0395847
 H             0.402357    1.36808    1.11644           -0.220663  0.0752688   0.256178
 H              1.30713   0.838826    1.41578           -0.198363 -0.0363527  0.0737731
 H              2.19766    1.42901    1.11757          -0.0193219  0.0263486  -0.172956
 H              3.11056   0.859852    1.40704           0.0499563   0.184159 -0.0324278
 H              4.00044    1.40352    1.11267          -0.0462264 0.00994118  -0.112313
 H             0.391942    2.50693    1.13568            -0.107371 -0.00674462  -0.0880129
 H              1.29557    1.94467    1.44362            0.092133   0.154183 0.00645209
 H              2.19703     2.4934    1.12187            0.024876 -0.0837934  0.0973361
 H              3.10473    1.94879     1.4443          -0.0598161  -0.189281 -0.0664031
 H              3.97403    2.49853     1.1032           -0.118262 -0.0604989  0.0494823
 H             0.409975    3.63738     1.1457            0.182904  -0.101039  0.0232919
 H              1.30087    3.06865    1.42358           -0.286395   0.104923  -0.128937
 H              2.20295    3.58767     1.1399          -0.0936228  -0.263436  0.0186444
 H              3.09566    3.05239    1.45143           0.0530925   0.126897  -0.163026
 H              3.99935    3.58618    1.13755           0.0677171   0.062266   0.167087
 H             0.477565    4.77241    1.21582            -0.125617   -0.075785 -0.00728191
 H                1.338    4.13553    1.45045            0.139253   0.105871  0.0410012
 H              2.22348    4.72628    1.22977           -0.0710225 -0.00423707   0.0771223
 H              3.10533    4.12793    1.46178             0.11919 -0.0287657 -0.0643963
 H              4.00582    4.72416     1.1647          -0.0489051   0.211198  0.0519275
 H             0.469292  -0.304169    2.05824            0.117565 -0.0134899      0.304
 H              1.31176    0.30832    2.35918           -0.112935  -0.224969 -0.0461031
 H              2.20404  -0.262638    2.07612          -0.0323593  0.0690897 -0.0992712
 H              3.10379   0.297295    2.33984          -0.0128782  0.0914219 -0.0843399
 H               3.9646  -0.280377    2.01453            0.148054 -0.0708425    0.11558
 H             0.395762   0.811876    2.04443           -0.180926  0.0147526   0.167895
 H              1.30663    1.38512    2.37105          -0.0355409 -0.0642011  -0.121458
 H               2.2157   0.846672    2.06961          0.00542989   0.194412 0.00512502
 H              3.11478    1.37492    2.37213          -0.000803336    0.0903316     -0.10891
 H              4.02353   0.836827     2.0363          -0.0603268 -0.0191839  -0.219755
 H             0.403207    1.93205     2.0682           -0.035999  0.0687682  -0.112037
 H               1.2997    2.47792    2.38379           0.0674982  0.0558499  -0.166611
 H              2.20871    1.92957    2.07019            0.137234   0.157006  -0.184209
 H               3.1021    2.47571    2.40746            0.198776  0.0773476 -0.0225899
 H              4.00839    1.96339    2.06949          -0.000352958    0.0457989     0.260744
 H             0.381315    3.04825    2.07212          0.00532859  -0.119786  -0.174463
 H              1.31442    3.56626    2.39133            0.111762  0.0860488   0.218994
 H              2.20564     3.0104    2.07875             0.179772 -0.00611371   -0.126807
 H              3.10309    3.56824    2.39719          -0.0985692 -0.0452381  0.0842753
 H              4.01291    3.04562    2.08493            -0.10904   0.259917   0.098816
 H             0.456147    4.16253    2.11955          -0.0199654 -0.0637892  0.0293071
 H              1.34501    4.69044    2.37935           -0.140431  -0.174986 -0.0592917
 H              2.21159    4.10198    2.10677           0.0788326 -0.0749606  -0.161313
 H              3.06748    4.68562    2.38405             0.115749 -0.00180155    0.195167
 H              4.00032     4.1636    2.12634           0.0272022 -0.0519467  0.0849655
 H             0.413504   0.279613    3.00437          -0.0863792  -0.144285   0.148048
 H              1.30904  -0.288081    3.26131          -0.0573773   -0.22691 0.00841011
 H              2.18927   0.288525    3.00195           -0.146065  0.0131608  0.0571615
 H              3.09194  -0.304491    3.23561             0.20837   0.147685  -0.233198
 H              4.01542   0.269375    2.98263            0.010527  0.0782976 -0.0359825
 H             0.409109    1.38337    3.01955          -0.0933492   0.348285 -0.0649806
 H              1.28831   0.836821    3.31074          -0.0613064  0.0808466  0.0600409
 H              2.20171    1.37225    3.00488           -0.107427  0.0241742   0.313305
 H              3.10435   0.801586    3.30379            0.147069   0.120426  -0.152063
 H              4.00416    1.38373    3.00103             0.15708   0.127442 -0.0730877
 H             0.366596    2.49183    3.01463            -0.08345 0.00185536   0.189977
 H              1.29011     1.9155    3.32894          -0.0522924 -0.0122744 -0.0502634
 H              2.19991    2.46258    3.02419            -0.12595   0.104243 -0.0436037
 H              3.10696    1.89981    3.34209            0.107481 -0.0458716 -0.0429237
 H              4.00745     2.4894    3.04294          0.00948874  -0.116448   0.157226
 H              0.36902    3.59002    3.04473          -0.0720449    0.05329 0.00342172
 H               1.2931    3.00741    3.34399           0.0339899  -0.206139 -0.0700241
 H              2.19988    3.54345    3.03011           -0.103419 -0.0924165   0.204329
 H              3.10783    3.00854    3.37309            0.279817 -0.0446343 -0.0240605
 H              3.98293    3.58952    3.06924            0.0482191 -0.00289888  -0.0989639
 H             0.501571    4.74171    3.05613           -0.148045   0.348699   0.116925
 H              1.30674     4.0752    3.30888           -0.111642  -0.229548    0.13203
 H              2.20758    4.67132    3.05143          -0.0356678  0.0276514  -0.210942
 H              3.06804    4.08125    3.33866             0.17837  0.0928991  -0.224497
 H              3.89311      4.748    3.09407            0.272285  -0.231239   0.105345
 H             0.405582  -0.292903    3.94813             -0.13494 -0.00872205   0.0250897
 H              1.31111   0.252446    4.27158           -0.162267   0.115122  -0.113652
 H              2.20584  -0.295748    3.93304            0.033488  0.0901839  -0.210617
 H              3.08681   0.256762    4.27003           -0.141852  0.0184506  -0.211627
 H              3.94721  -0.316225    3.90469            -0.078587   0.0920169 -0.00231591
 H             0.401357   0.816903      3.958          -0.00945471   0.0943712   0.0434574
 H              1.29262    1.36743    4.27382           -0.206972   0.200196    0.15536
 H              2.19778   0.821287    3.95152          -0.0725821    0.28662  -0.226315
 H              3.08477    1.34636    4.29736          -0.0140831 -0.0372174 -0.0934273
 H              4.01813   0.825773    3.94636           0.0543057  -0.126877   0.143402
 H              0.38047    1.92831    3.96157          -0.0109939  0.0862236  -0.103237
 H                1.298    2.44702    4.29039           -0.142251 0.00790565 -0.0289102
 H              2.19724    1.90841    3.94343           -0.123442    0.01512  -0.142337
 H              3.08947    2.43694    4.31644          -0.0813135   -0.03305   0.165069
 H              4.01726    1.92153    3.98915           0.0683482   0.108286  0.0479602
 H             0.394403    3.02977    4.00106           0.0694994   -0.09509 -0.0286393
 H              1.31527    3.55313    4.29817            0.129222 -0.0269805   0.114556
 H              2.20026    2.99317    3.98037            0.164571   0.253933  -0.154472
 H              3.05348    3.54916    4.34208          -0.0341162   0.054228 -0.0841682
 H              3.98359    3.04072    4.04128          -0.00961046   -0.196291   0.0422215
 H             0.449798    4.16265      4.002          -0.000600806    -0.147263    0.0860223
 H              1.40843    4.97441    3.82612           0.0695818  0.0378378   0.205306
 H              2.16735    4.13132    3.99373           0.0469528  -0.126068  -0.135165
 H              2.94924    5.03537    3.82815           -0.094958 -0.0817852   0.387543
 H              3.91692    4.16624    4.03439            0.023587  -0.210702  0.0291964
