125

 H             0.916779  -0.738392   0.602155            0.277585  0.0533163  0.0971937
 H              1.31928   0.260963   0.483249            0.208392 -0.0774389   0.149644
 H              2.19935   -0.57407   0.656996           -0.0407848  -0.0135555 -0.00918104
 H              3.04939   0.284852   0.448145          -0.0792375  -0.156065  0.0152904
 H               3.6541  -0.641119   0.529901           0.0731259    0.10705   0.133155
 H              0.41738   0.790933   0.195975            0.023161  -0.032764  -0.267658
 H              1.30315    1.39852     0.4641            -0.142499 -0.00655136  -0.0411674
 H              2.16791   0.835837   0.138363          0.00432227 -0.0240974   0.189397
 H              3.09537    1.40477   0.435637           -0.032688  0.0995139  0.0458221
 H              3.98421   0.812607   0.165649           -0.389436 -0.0580899 -0.0352814
 H             0.416373    1.95527   0.131076          -0.0502478 -0.0332007  -0.136478
 H               1.3103    2.51033    0.47838            0.256519 -0.0904626  0.0615665
 H              2.21364    1.95795   0.128171            0.205365   0.111779  -0.137225
 H               3.1155    2.51609   0.476025          -0.0212337 -0.0772813  -0.171663
 H              3.97713     1.9574   0.125264           0.0555779 -0.0303285  0.0127746
 H             0.385422    3.09122   0.152885           0.0527035  -0.139608  0.0734247
 H              1.30431    3.61751    0.51665            0.193826  -0.187817  -0.102234
 H              2.22076    3.07676   0.171292           0.0658375  -0.140701  0.0348093
 H              3.10029    3.61925   0.513613           0.0927794   0.125651 -0.0922848
 H              4.04617     3.1052   0.193657            0.204177   0.297497  0.0115038
 H             0.420395    4.18586    0.22527           -0.162887  -0.164451 -0.0653964
 H              1.31497    4.71919   0.563031            -0.220756   -0.124351 -0.00942667
 H              2.20274    4.18776    0.20317          0.00765678 -0.0463757   0.185001
 H              3.08201    4.72723   0.548268           -0.222695  -0.124712 -0.0404723
 H              3.99654    4.21254   0.213994            0.201605  0.0318338   0.156652
 H             0.425294   0.223793    1.13344           0.0617431  -0.133236 -0.0945508
 H              1.37377  -0.265286    1.45407            0.174414  -0.264778  -0.126187
 H              2.20707   0.362929    1.12441           0.0212874   0.108493 -0.0544047
 H              3.04446  -0.266884    1.39838           -0.258799  0.0229001 -0.0824974
 H              3.96502   0.291453    1.11673           0.0670933 -0.0739006  0.0283552
 H             0.388556    1.38872    1.09711            0.145931  0.0881497  -0.140048
 H              1.30886   0.850346    1.40563             0.100467    0.308302 -0.00814765
 H              2.19576    1.42461    1.08658           0.0241765  0.0774473  0.0915868
 H              3.09397   0.875448    1.40592           -0.109006  -0.120756 0.00794176
 H              3.98308    1.40552    1.08115          -0.0260854  -0.156713  0.0518952
 H             0.408432    2.49995    1.10726            0.112713  -0.300787    -0.2539
 H              1.28848     1.9547    1.42945            0.214842   0.107698  0.0848301
 H              2.21253    2.51797    1.09247           0.0247177   0.157476   0.085595
 H              3.10603    1.96904    1.40082          -0.0288699    0.15969  0.0613865
 H              4.01725    2.49366    1.09868          -0.0479952  -0.265703  0.0311282
 H             0.380467    3.60493    1.16265           -0.100372   0.191696  0.0177379
 H               1.3085    3.03519    1.44668            -0.151935   0.0437274 -0.00815235
 H               2.2003    3.60796    1.15164           -0.115887 -0.0862758  0.0296884
 H              3.10905     3.0371    1.43817            0.188608  -0.137043  -0.125067
 H              4.00506     3.6089    1.17416           -0.205023  0.0911493  0.0319163
 H             0.448676    4.74775     1.2103           -0.130401 -0.0620054 -0.0806651
 H              1.29421    4.12961    1.47731          -0.0922153   0.105866 -0.0121183
 H              2.20189    4.72433    1.20541           -0.168974  0.0122595  -0.142379
 H              3.10123    4.14963    1.47261          -0.0422785   0.145067    -0.1762
 H              3.96803    4.73021    1.21555            0.101792   0.087276    0.17855
 H             0.455908  -0.319847    2.08908           0.0407801 -0.0223949  0.0631533
 H              1.31025   0.313275    2.34419            0.129088   0.117835 -0.0994473
 H              2.22956  -0.274576    2.09037           -0.153368   0.080975   0.238357
 H              3.08904   0.320886     2.3307           -0.156745 -0.0457925  0.0899744
 H              3.95353  -0.266926    2.06076          -0.0903334 -0.0492811   0.205158
 H             0.402687   0.825934    2.04671           -0.129317   0.137247   0.136781
 H              1.29054    1.39401    2.36911            0.209706   0.146287   0.116559
 H              2.19673   0.874264     2.0636           0.0311346  -0.112938 -0.0130545
 H              3.08816     1.4131    2.35022           -0.168415 -0.0190824 -0.0422776
 H              3.99985   0.859569     2.0496           0.0625721 -0.0769619   0.062446
 H              0.38833    1.92291    2.06094          -0.0680506 -0.0545708 -0.0218703
 H              1.30603    2.48932    2.38842           -0.103404  0.0199898  -0.140965
 H              2.19965    1.95305    2.03603           0.0739061    0.23291   0.241646
 H                3.081    2.48098    2.37349          -0.0367382  0.0239202 -0.0948299
 H              3.98982    1.95305    2.04743           -0.169367  0.0344771 -0.0979669
 H             0.404443    3.04347    2.08835           -0.042229  -0.202812   0.198025
 H              1.29909     3.5619     2.3964            0.063497  -0.174031 0.00779646
 H              2.20424    3.04211    2.06936           0.0387035   0.176922  0.0623448
 H               3.1018    3.55728    2.39312           -0.135241  0.0530735 -0.0789776
 H              4.01735     3.0295    2.07121          -0.0280349 -0.0132284  0.0428469
 H             0.379799     4.1686    2.12566          -0.0741255 -0.0101765   0.124101
 H              1.30437    4.70722    2.38645            0.203169   0.332374  0.0262384
 H              2.19213    4.14211    2.12893            0.107225 -0.0911181  0.0594271
 H              3.08843     4.7004    2.42203            0.176798  0.0163102 -0.0986656
 H              4.00784    4.12688    2.13102            0.107734 -0.0651417  0.0660034
 H             0.386632   0.280166    2.98557          -0.0448848   0.140476 -0.0893098
 H              1.28413  -0.271048    3.22385           0.0375176  0.0889901  -0.159495
 H              2.18193   0.308297    2.99374           -0.102421  -0.231029  -0.119216
 H              3.08382  -0.284757    3.23429            -0.100708 -0.00177522   -0.082966
 H              3.97863   0.286882     2.9932          -0.0780255   0.191426  0.0355466
 H             0.394122    1.38378    3.01124            0.223497   0.124483   -0.13965
 H              1.29143   0.839967    3.31862          -0.0443294 -0.0069892 -0.0159329
 H              2.18463    1.41181    3.00368          -0.0195588 -0.0443622  -0.215426
 H              3.09269   0.850471    3.29746           -0.152417 -0.0917589 0.00938402
 H              3.97943    1.39602     2.9971           -0.269441 -0.0539283  -0.322527
 H             0.420685    2.47661    3.02719          -0.0458128    0.19381  0.0105059
 H              1.30134    1.93861    3.34503          -0.0555645   0.145438  -0.267069
 H              2.18767    2.47837    3.00955            0.133153   0.115531  -0.192738
 H              3.09168    1.93557    3.32483           -0.145838  -0.237257  -0.138186
 H              3.98199    2.47475    3.00822           -0.271327  0.0270136 -0.0294863
 H             0.414576    3.59749    3.04453          -0.0139334 0.00314499  0.0858714
 H              1.29963    3.01788    3.34805           -0.105005  0.0896527   0.242809
 H              2.21691    3.56572    3.02948            0.175564   0.031521   0.254723
 H              3.09775    3.00962    3.32615           0.0229067   -0.14328 -0.0626833
 H              4.01262    3.56326    3.03594           -0.101109 -0.0998692  -0.216266
 H             0.493998    4.72568    3.09188           -0.295795 -0.0330266  -0.156201
 H              1.33778    4.09453    3.32246             0.11643  -0.122894   0.140185
 H              2.21377    4.70255    3.06949          -0.0206249    0.19022   0.184281
 H              3.09588    4.09452    3.33325           0.0185182  0.0378772   0.101359
 H              3.97476    4.68217    3.06353           0.0172487  0.0421253  -0.155276
 H             0.392673  -0.299872     3.9363            0.0191093 -0.00782327   -0.190132
 H              1.29851   0.246218    4.23118           0.0365342 -0.0954311  0.0987878
 H              2.17328  -0.310795    3.87465          -0.0080448   -0.11435  0.0712983
 H              3.07887   0.234263    4.21241           0.0711165 -0.0356632   0.147984
 H              4.00374  -0.323114    3.89384           0.0489538  -0.136193 -0.0528808
 H             0.387338   0.808161    3.96779            0.197307  -0.113109  0.0771024
 H              1.29845    1.34905    4.27718          -0.0537464 0.00372603  0.0591608
 H              2.18809   0.818894    3.93437           0.0144293  -0.222684 -0.0161259
 H              3.06469    1.35759    4.29502          0.00510423  -0.134507    0.22128
 H              3.98498   0.813788    3.95493          -0.0873275   0.180611 -0.0133163
 H             0.404084    1.93383    3.97781          -0.0679332  -0.118505   0.159217
 H              1.30273    2.47451    4.30261            0.223329  0.0711683  0.0903606
 H              2.19677    1.92421    3.95643           -0.0597736    0.209339 -0.00744401
 H              3.07432    2.46497    4.29424            -0.03362   -0.21075  -0.115208
 H              3.98164    1.92513    3.97765          -0.00874739    0.171336  -0.0817234
 H              0.41804    3.04516    3.98274           0.0465443 -0.0170403  0.0925408
 H              1.30701    3.58791    4.31281           -0.234507  -0.208239 -0.0708356
 H              2.19184    3.02741    3.96166            0.107176 -0.0830971  0.0739513
 H              3.06209    3.57611     4.3088            0.214832    0.23935  -0.023099
 H              3.97408    3.01461     3.9811           0.0513451  0.0865669 -0.0794123
 H             0.467493     4.1802    4.02258           0.0335447    0.12155  0.0715993
 H              1.45807    4.98404    3.88367            0.110406   0.109865   0.162167
 H              2.18517    4.12489    4.00115            0.209511 -0.0126403 -0.0817475
 H              2.91827    4.94479    3.92431           0.0639925    0.10314   0.316991
 H              3.95931    4.14456    4.03577           0.0133669  0.0182563  -0.119617
