125

 H             0.803359  -0.642441   0.580501            0.101449  -0.146873   0.130942
 H                1.334   0.299398    0.44319           0.0803074   0.103116   0.101037
 H              2.02952  -0.591491     0.6695            0.337381  0.0334888  0.0198488
 H              3.06838   0.302361    0.46002            0.111011  0.0190905   -0.17686
 H              3.67636  -0.624872    0.58692           0.0755571  0.0205044  0.0249443
 H             0.404623   0.829036   0.156031            0.198262 -0.0916669  -0.172112
 H              1.31425    1.38583   0.470853           -0.122469 -0.0824527  0.0484506
 H               2.2176   0.856581   0.111782             0.28194  -0.065554  -0.137955
 H              3.10027    1.40599   0.471187            0.216077   0.252986 -0.0489316
 H              3.99349   0.844549   0.148107           -0.155669  -0.113889 -0.0398644
 H             0.470303    1.94465   0.132773           0.0169835  -0.144383  0.0893357
 H              1.32868    2.50171   0.494729           -0.159228  0.0795453 -0.0255485
 H              2.20389    1.96384   0.136241           -0.115271  -0.162632  -0.136685
 H              3.10149    2.50984    0.46762            -0.15146   0.108703   0.132978
 H              4.03533    1.96965   0.158671           -0.082507  0.0115439 -0.0288313
 H             0.418476    3.07801   0.163748            0.107795 -0.0484728   0.166445
 H              1.30877    3.61166   0.484805          -0.0840259   0.042247   0.229875
 H              2.21724    3.08144   0.158641           -0.122513   0.139047 -0.0675062
 H               3.1179     3.6123   0.489584           0.0564451 -0.0696941    -0.0229
 H              4.02007    3.07779   0.184979             0.123569 -0.00711106   -0.073881
 H              0.39242    4.20024   0.220772           -0.0408448   -0.149559 -0.00929508
 H              1.32044     4.7033   0.539022          0.00838577  0.0814472  0.0838816
 H              2.22736    4.17574   0.234637           -0.119195 -0.0969121  -0.145777
 H              3.09443    4.75158   0.550533            0.014614  0.0721568 -0.0908864
 H               4.0333    4.22776   0.263598           -0.201271  -0.298957    0.19215
 H             0.396161   0.284897    1.10559          -0.0418484 -0.0168189 -0.0230653
 H              1.31756  -0.226837    1.43237          -0.0962456  -0.134381   0.127898
 H              2.18202   0.348194    1.12491           -0.110275   0.154649 -0.0321811
 H              3.01877  -0.253658    1.39949            0.065926 -0.0224671  -0.212726
 H              3.97455   0.290531    1.09594           0.0125205   0.104069   0.238803
 H             0.406825    1.41112    1.08986          -0.0457001   0.121629   0.123769
 H              1.28528   0.851279    1.40962           0.0936588   0.100093   0.163464
 H               2.1936    1.43018    1.08974           0.0232343  -0.242681 -0.0934398
 H              3.07936   0.862166    1.42204           0.0325658  -0.103469 0.00925201
 H              4.01936    1.39469    1.11791           -0.109931   0.179623  0.0860626
 H             0.419854     2.5234    1.08931           -0.128271    0.18357  0.0794052
 H              1.30669    1.96723    1.42425           0.0779341 0.00505823  -0.060781
 H              2.21637    2.50465    1.12426            0.227684   0.285295  -0.154623
 H              3.10402    1.94397    1.42358          -0.0873357 -0.0336822 -0.0970591
 H              3.99302    2.50593    1.13473           0.0438498   0.019452    0.12849
 H             0.412838    3.62233    1.14865            0.119155  -0.252373  0.0316781
 H              1.31333    3.04589     1.4498            0.166019   0.163453 -0.0195585
 H              2.20625    3.59433    1.14214          0.000103453  -0.0685893  -0.0530236
 H              3.10502    3.04961    1.44231          -0.0992269  -0.049921   0.164779
 H              3.99536    3.60583    1.14291           -0.355515  0.0567416   0.120906
 H             0.419499    4.73947    1.18745            0.105744  0.0305391 -0.0716472
 H              1.30652    4.15091    1.48282           0.0637679  -0.197025   0.104263
 H              2.21043    4.73893    1.22258           0.0252877  -0.310883 -0.0627859
 H              3.07884    4.12923    1.44838          -0.00518524    0.406636   0.0514182
 H              3.93312    4.76416    1.22251           0.0188997 -0.0990437  0.0393197
 H             0.444356  -0.302587    2.03022            0.097873  -0.250736 0.00591523
 H              1.28969   0.309648    2.36053           0.0338949 -0.0136285 -0.0309679
 H               2.1856  -0.298227     2.0767           0.00505219 -0.00367593   -0.215576
 H              3.07558   0.307842    2.34462           -0.217041  0.0548823 -0.0260745
 H              3.93489  -0.311391    2.05812          -0.0327041 -0.0313237   0.360392
 H             0.384906   0.844837    2.05107          -0.0887978  0.0942339  0.0301544
 H              1.30176    1.39188    2.37249           -0.210506   0.204696 -0.0856925
 H               2.1875   0.859796    2.05468             0.115418 -0.00403359  -0.0775387
 H              3.09509     1.3958    2.37487           -0.275037  -0.193095   0.139343
 H              3.98382   0.827795    2.05312          -0.0238437  -0.282699   0.117356
 H             0.404762    1.93668    2.04498           -0.296107 0.00709174 0.00976359
 H              1.29887    2.48816    2.38303            0.149922 -0.0256735 -0.0653807
 H               2.2085    1.94047    2.04789          -0.0912343  0.0384509  -0.258366
 H              3.08664    2.48156    2.38767            0.237648  0.0673156  0.0214798
 H              4.01621    1.95196    2.07166            0.109834  -0.140725  -0.424729
 H             0.385063    3.02783    2.09179            -0.16455  -0.140184   0.132465
 H              1.28119    3.56443    2.40153           -0.155777   0.181699  0.0779287
 H              2.19992    3.03416    2.07798           -0.179143    0.03757  0.0666618
 H              3.11666    3.57209    2.39448           -0.013236  0.0611779 -0.0209307
 H              3.99189    3.04046    2.09486            0.073953 -0.0824379    0.19824
 H             0.405239    4.14345    2.12131          -0.0883913 -0.0485101 -0.0612925
 H               1.3217    4.69993    2.41347            0.262817   0.189772  -0.114337
 H              2.19281    4.09637     2.1201             -0.06779    0.108165 0.000153354
 H               3.0699    4.69827    2.37081          -0.0190174  0.0103966  0.0066339
 H              3.98615    4.14729    2.10479            0.290397  0.0258528   0.066197
 H             0.384618   0.293627    2.98423          -0.0426169   0.187236   0.178944
 H               1.3061   -0.30729    3.24372           0.0151575   0.147394    0.10615
 H              2.19766   0.283928    2.99139           -0.036127  -0.305389 -0.0455681
 H              3.10104  -0.302855    3.24501          -0.0687456  0.0932457  -0.125623
 H              3.99303   0.257618    2.98367           0.0428186 -0.0970506   0.115953
 H             0.401011    1.39008    3.01068          -0.0417026  -0.148615 -0.0914271
 H              1.30719   0.824532    3.30563            0.288552   0.125188 -0.0187041
 H               2.1896    1.38468    2.99115          -0.0537943   0.243264  -0.211499
 H              3.09572   0.813266    3.28242          -0.0668499   0.127023  0.0198698
 H              4.00186    1.38164    3.01486            0.156155   0.146404  0.0721056
 H             0.420013    2.47868    3.02558          -0.0542827   0.052002   0.145384
 H              1.30978     1.9194    3.32902           0.0975183  -0.046623 -0.0821618
 H              2.20123     2.4769     3.0209            -0.100206  -0.0158514 -0.00227296
 H              3.08073    1.91372    3.33295          -0.0426091  0.0450371 -0.0613012
 H              4.00872    2.47618    3.03409           -0.154398   0.066062  0.0103426
 H             0.386564    3.57268    3.06163           0.0612669 -0.0228782  -0.067978
 H              1.29852    2.99053    3.36075           -0.315024    0.19654 -0.0233048
 H               2.1894    3.54935    3.03224           0.0195404 -0.0312331  -0.171561
 H              3.08821    3.01092     3.3499          -0.0813841 -0.0936227 -0.0199932
 H              3.99818    3.59703    3.05919           -0.100999  0.0581149  0.0409281
 H             0.459742    4.73157    3.11246          -0.0152888 0.00973915  0.0553794
 H              1.32026     4.0701    3.34249            0.131538   0.153581 -0.0290126
 H              2.19955    4.69438    3.04679            0.189401   0.283271   0.196471
 H              3.06304    4.08427    3.33189            -0.16576  -0.225801   0.185378
 H               3.8985    4.71114    3.06589          -0.00947201  0.00824888   0.0599436
 H             0.420015  -0.313417    3.92956            0.253246  0.0834218 -0.0712378
 H              1.33313   0.241679    4.23374          -0.0182496  0.0581054   0.101927
 H              2.19385  -0.324433    3.90883             0.02106  0.0627187  0.0925891
 H              3.09394   0.241847    4.21575          -0.0857476  -0.107999   -0.19422
 H              4.00597   -0.32054    3.92154           -0.190591  -0.133091   0.120974
 H             0.419401   0.827498    3.96903           0.0613131  -0.170854 -0.0171384
 H              1.33061    1.34428     4.2911          -0.0782234  0.0330995   0.133025
 H              2.21657    0.81796    3.94337           -0.111261 -0.0600383  -0.346061
 H              3.10264    1.34272    4.25834          -0.0679689   0.135235 0.00937307
 H               4.0211   0.812085    3.96835            0.279127 -0.0142013  0.0287989
 H             0.422828    1.91389    3.99118           0.0686813  -0.104133 -0.0182046
 H              1.31757    2.44797    4.31614          -0.00935014   0.0190616    0.123722
 H              2.20562    1.90966    3.95449            0.177314  -0.239017  -0.113429
 H              3.09092    2.44955    4.27076           -0.140125   -0.10904 -0.0493314
 H              4.01305    1.91728    3.97888           -0.268842   -0.15776 -0.0245025
 H             0.421367    3.02675    4.03423           0.0568738  -0.046328  -0.231531
 H              1.33898    3.55835    4.31165           -0.372257  0.0210327   0.128664
 H              2.18701    3.02045    3.98266             0.16484   0.104044  -0.177363
 H              3.05526    3.57981    4.30969            0.142532  0.0463727 0.00840446
 H              3.98029     3.0205    3.98525           0.0124821   0.183032  -0.131263
 H             0.487092     4.1495    4.03116            0.147767 -0.0424267  0.0525934
 H              1.39579    5.05052    3.75253            0.145626   0.149834   0.123286
 H               2.1858    4.17619    3.99974           0.0967106  -0.130344 -0.0849964
 H              2.97281     5.0302    3.81222            0.115133 -0.0461816   0.133079
 H              3.91284    4.18225    4.01692            0.121446  -0.119604  -0.316872
