125

 H             0.822121   -0.65216   0.538052           0.0554782  0.0188915   -0.05532
 H              1.34341     0.3116   0.458119          -0.0756256   0.116556 -0.0442478
 H              2.04524  -0.571305     0.6012             0.0112928    0.0530485 -0.000947627
 H              3.07757   0.306169   0.471759            0.015473   0.280956  0.0426037
 H              3.67465  -0.615695   0.529033          0.00133629   0.137178   0.168765
 H             0.452325   0.838086    0.13417          0.00308365 -0.0656225   0.113147
 H              1.31891    1.41006   0.468448           0.0370955  -0.204448   0.079382
 H              2.21196   0.854367   0.140934          0.000850141   0.0645249 -0.00497502
 H              3.10425    1.42259   0.444208            0.191493  -0.199637  -0.128268
 H              3.97241   0.833392   0.156719            0.025141   0.173418   0.153314
 H             0.411327     1.9466   0.121147          -0.0956349  0.0702974  -0.221886
 H              1.30903    2.49715   0.492023            0.144976    0.09676  0.0353718
 H              2.19402    1.97251   0.140325            -0.231047 -0.00686879    0.124441
 H              3.10181    2.51602   0.478763             0.148175  -0.0712885 -0.00563394
 H              4.00587    1.96722   0.153009           0.0519973   0.174121  0.0275562
 H              0.39174    3.04956   0.164195           -0.162381  0.0855694  0.0969466
 H              1.31679    3.60627   0.494935           -0.096622  -0.104448  0.0103293
 H               2.2115    3.06452   0.164827            0.112745 -0.0838399  -0.234675
 H              3.10731    3.61957   0.511285            0.236234  0.0531651   0.167154
 H              4.00721    3.07901   0.167223            0.241215   0.142974   0.348798
 H             0.425161    4.16499   0.196018           -0.137207 0.00642877  -0.238569
 H              1.32809    4.74501   0.536819             -0.22101  -0.0281161 0.000708811
 H              2.20839    4.19186   0.226731           -0.175844  0.0532319    0.01089
 H              3.07617    4.74316   0.526771           -0.129088 0.00172065  0.0219039
 H              4.00187    4.23188   0.205253           0.0489126  0.0271016 -0.0812479
 H             0.433498   0.261071    1.08956          -0.0971603  0.0374258   0.236604
 H              1.33423  -0.266854    1.40657          -0.0452833  0.0888253   0.029581
 H              2.20568   0.344184    1.11948           -0.0332233 -0.00999469   -0.097765
 H              3.03964  -0.287516    1.37955           -0.275033  -0.156908  -0.205133
 H              3.97165   0.285307    1.11148             0.14308 -0.0376637   0.109707
 H             0.400973    1.41333    1.09524           0.0892608  -0.094244  -0.104667
 H              1.32164   0.861974    1.41274            0.125582 -0.0845281 -0.0550911
 H              2.20803    1.42241       1.11          -0.0426161  -0.143901  -0.101204
 H              3.09857   0.867002    1.41879          -0.0214454  -0.079511  -0.170763
 H              4.01381    1.40912    1.11873           0.0531007 -0.0661653  -0.016234
 H             0.407365    2.51004    1.11972            -0.14495   -0.10258  -0.104744
 H              1.30591    1.93846     1.4457           -0.061926  -0.031184  -0.221757
 H              2.20484    2.50007    1.11658           -0.110894 -0.0968256 -0.0617664
 H              3.09838    1.96399    1.42826            0.148893 -0.0760022  0.0368349
 H               4.0063    2.53181    1.10484            0.219159 -0.0792409   0.194841
 H             0.384042    3.61038    1.14962           0.0543337  0.0759147  -0.249093
 H              1.30936    3.02303    1.43244           -0.204651 -0.0698981   0.125627
 H              2.20944     3.5911    1.14947           0.0239106   0.157382  -0.116794
 H              3.09928    3.05696    1.43859            0.105769 -0.0790477   0.217503
 H              4.01841    3.65283    1.13445            -0.14777   0.177268  -0.188021
 H             0.436191    4.70892    1.19717           0.0440606  0.0661136  0.0120321
 H              1.31405    4.12933    1.44344           0.0630564   -0.10276  0.0205787
 H              2.20331    4.73938    1.22729            -0.246021 -0.00880769   -0.134319
 H              3.11089    4.14269    1.46766            0.104417   0.121927 -0.0743446
 H               3.9561    4.76791    1.20272           0.0484282  0.0369693 -0.0715404
 H              0.43873  -0.284892    2.04945           0.0469868   0.161488   0.269923
 H              1.30334   0.301933    2.34604            0.133851   0.227423 0.00204134
 H              2.19308  -0.270688    2.07622           -0.150543  0.0117521   0.145943
 H              3.06204   0.306624    2.35009          -0.0570215  -0.232443  -0.258169
 H              3.89438  -0.302163    2.04269          -0.0197662  -0.199481 -0.0885066
 H             0.400977   0.837662    2.05399           -0.323902  0.0941041  -0.245426
 H              1.31382    1.39872    2.38789            0.154156  0.0621921   0.178975
 H              2.18307    0.85963     2.0648            0.016963   0.033155   0.415596
 H              3.08848    1.40158    2.38157          -0.0733966   0.119761 -0.0682341
 H              3.97807   0.846065    2.05115            0.0636791   0.0533386 -0.00577183
 H             0.406662    1.91488    2.07179             0.17001  -0.151151 -0.0656536
 H                1.293    2.48124    2.39558           -0.243718  0.0745309  -0.165681
 H              2.19641    1.93821    2.06279          -0.0770304 -0.0529741  -0.189265
 H               3.0961    2.49685     2.3788            0.344978  0.0283757   0.159481
 H               4.0066    1.95422    2.07561           -0.141221   0.247066 -0.0344912
 H             0.384878    3.02833    2.09079           -0.114169  -0.270902 -0.0184441
 H              1.29626     3.5591    2.36182           -0.130207   0.114075  -0.144542
 H               2.1944    3.02441    2.07853           -0.231919   0.200613  -0.163162
 H              3.10458    3.59284    2.38103           0.0699741  -0.186531   0.130449
 H              4.00526    3.05283    2.07808           0.0275498  0.0613481   0.153697
 H             0.402138    4.11846    2.10702           0.0331658   0.154809   0.327888
 H              1.28086    4.71955    2.37625           -0.218955    0.19107   0.121195
 H              2.18445    4.12018    2.10413           0.0157437 -0.0589014 -0.0678873
 H               3.0764     4.7142    2.40155            -0.10149  -0.118366  -0.143548
 H               4.0297    4.17226    2.12612           0.0844801 -0.0421514    0.12198
 H             0.371053     0.3059    3.00137           0.0444758  0.0817624 -0.0837638
 H               1.2964  -0.271268    3.24688            0.209364   0.163142  -0.223737
 H              2.18229   0.304806    3.00289            0.134073    0.04494  0.0569991
 H              3.09261  -0.315903    3.25627          -0.0684086  0.0372725   0.215394
 H              3.97996   0.258852    2.98162          -0.0412687 -0.0875087  0.0826099
 H             0.384504    1.38545    3.03981            0.129773  0.0677844  0.0403049
 H               1.2932   0.826825    3.32906           -0.136354  -0.189407  0.0650412
 H              2.21503    1.37182    3.02337           0.0435902 -0.0525412 -0.0834036
 H              3.07948   0.812852    3.32493           0.0989106 -0.0106404  -0.142798
 H              3.99669    1.35801    3.02134           -0.119856 -0.0661882  0.0871316
 H             0.411957    2.46569     3.0249           0.0972058 -0.0621173 -0.0996933
 H              1.31131    1.91763    3.35794          -0.0999301   -0.17445   0.388711
 H              2.19556    2.45412    3.02662          -0.0299313  0.0046206  -0.147335
 H              3.10639    1.91435     3.3314          -0.0977366 -0.0210685   0.155182
 H              3.98874    2.47571    3.01259          0.00533679 -0.0446239  0.0675305
 H             0.401587    3.58156    3.03542          -0.0170024 -0.0317127  -0.062385
 H              1.29986     2.9989    3.33858           0.0204558   0.093764   0.099513
 H               2.2017    3.54225    3.03149            0.169881  -0.317275   0.108006
 H              3.10122    2.99789    3.34846          -0.0510423   0.156451 -0.0907337
 H              3.98945    3.58836    3.04527            0.142242   0.104742  0.0183823
 H             0.434705    4.70012    3.06811          -0.0132921 -0.0632209  0.0852289
 H              1.30688    4.08146    3.30514           0.0244941  0.0615355  0.0492154
 H              2.18552    4.67401    3.05094          -0.0332737  -0.163418  -0.109106
 H              3.08971    4.08831    3.31701            0.128673 -0.0421191 -0.0375393
 H              3.94046    4.73652    3.08887          -0.0446649 -0.0846885  -0.106521
 H             0.405456  -0.290582     3.9233           -0.170805 -0.0163187   0.323017
 H              1.30048   0.234271    4.29083            0.187497  0.0468481  -0.207034
 H              2.18787  -0.282696    3.90903           -0.121169  -0.164851 -0.0240492
 H              3.06951   0.251722    4.26275           0.0740438  0.0861797  -0.229687
 H              3.99311  -0.314596    3.89715          -0.0319422 -0.0517791   0.167023
 H             0.402691   0.817307     3.9677            -0.21881  0.0545396  -0.105847
 H              1.30286    1.35608    4.30223          -0.0250369  0.0890371   0.151421
 H              2.18225   0.824877    3.97447           0.0823907  -0.143959   0.023656
 H              3.11464    1.35611    4.29239           0.0784353 -0.0683206  0.0900111
 H              3.99792   0.787523    3.94579           -0.040334  -0.137267     0.1766
 H              0.42329    1.92354    3.99928           -0.112727  -0.158245 -0.0550759
 H              1.32242    2.45747     4.3205             0.083149   0.0131898 -0.00778399
 H              2.20518    1.89815    3.97604            0.176208  0.0690865  -0.160714
 H              3.11687    2.46863    4.30166            0.0850471  -0.0538179 0.000138115
 H              4.00277    1.91914    3.96066          -0.0467079  0.0185421  -0.288616
 H             0.435457    3.03128    3.99739          -0.0200732  0.0331468  -0.128109
 H              1.34394    3.56427    4.28377           -0.204107  0.0477806  -0.116044
 H              2.19721    3.00953    3.97343            0.027944  -0.150579 0.00792576
 H               3.0738    3.57501    4.29448            0.042466  -0.128518  0.0598011
 H              3.99321    3.04137    4.00952            0.154483 0.00882052   -0.10855
 H             0.476785     4.1681    4.00388            0.319759  0.0727178   0.183111
 H              1.46075    4.96057    3.88223          -0.0673447  0.0718786  0.0179073
 H              2.19855    4.14284    3.98482            0.072857   0.234824  0.0368266
 H              2.96464    4.97929    3.87775          0.00587313 -0.0828398 -0.0277618
 H              3.94762     4.1752     4.0228            0.101877   0.148429   0.125598
