125

 H             0.725436  -0.616588   0.557261          -0.0712673  0.0740034   -0.13021
 H              1.31291   0.327013   0.470684           -0.155147  -0.109947  -0.165779
 H              2.27031  -0.613356   0.693264          -0.0731446  0.0477018 -0.0222115
 H              3.04854   0.295396   0.471854            -0.235484   0.0280747 -0.00487907
 H              3.64533  -0.586222   0.504713          -0.0838785   -0.11558  -0.284253
 H             0.406345   0.826912   0.128341          -0.0617431  -0.165341 -0.0278306
 H              1.28889    1.42094   0.498043          -0.0236819 -0.0847159 -0.0498573
 H              2.18889   0.865362   0.139306            0.101357 -0.0608414  -0.114828
 H              3.09767    1.38858   0.435401            0.189761 -0.0887283 -0.0852093
 H              4.00654   0.788775   0.150937           -0.123686 -0.0111583    0.12941
 H             0.388287    1.96283   0.171237            0.138704   0.165406   -0.26749
 H              1.29733    2.51815   0.478563            -0.0557969     0.138585 -0.000200334
 H              2.18672    1.96348   0.147819           -0.171095 0.00966281  -0.152859
 H              3.09222    2.48983   0.464412           -0.100203   0.110899 -0.0230969
 H              3.99525    1.92466   0.136454             0.28473 -0.0280646 -0.0219473
 H             0.380406    3.06973   0.172642           -0.140152   -0.12928   0.165864
 H              1.30601    3.61848   0.483082           0.0919828  -0.117368  -0.265877
 H              2.19986    3.07607   0.185465           0.0821218  0.0118156 -0.0585022
 H              3.12488    3.62069   0.506376           0.0788047 -0.0120795 -0.0506199
 H              3.98473    3.05059    0.14832          -0.0705159  0.0664669   0.113073
 H             0.414556     4.2019    0.21713          -0.0155009  0.0134503 -0.0541693
 H              1.33235    4.74658   0.514207          -0.0275589  0.0215611 -0.0532683
 H                2.228    4.18287    0.21162           0.0847858   0.157656   0.180043
 H              3.12654    4.71629   0.543003           -0.168625   0.177888 -0.0764411
 H              4.01894    4.15894   0.239376          -0.0746613 0.00335234 -0.0652049
 H             0.416311   0.299309    1.11086            0.203759  0.0344009 -0.0417416
 H              1.32969  -0.259345    1.40085            0.280634   0.277431 -0.0812185
 H                2.195   0.350534    1.12818            0.203172 -0.0968701  0.0545311
 H              3.06211   -0.27404    1.40991           0.0490941  -0.181306   0.127624
 H               3.9648   0.294251    1.13167            -0.17077 -0.0629769  0.0672348
 H             0.371282    1.42619     1.1006          -0.0715997  0.0794111   0.178074
 H              1.29049   0.868469    1.43488            0.213654   0.035269  -0.103567
 H              2.20082    1.42012    1.08586            0.166433 -0.0726114  0.0688085
 H              3.08742   0.871138    1.40565          -0.0141441   0.150607   0.121379
 H              3.99381    1.37854    1.09421           0.0208151 -0.0709887   0.147946
 H             0.401473    2.51656    1.13069          -0.0358671  0.0751277   0.173114
 H              1.28966    1.97502    1.42571            0.100956  -0.147189  -0.102395
 H              2.18685    2.51198    1.10761          -0.0509346   -0.19866  0.0866664
 H              3.08997    1.94567    1.40683           -0.194783  -0.172228  -0.178537
 H              3.99886    2.50242    1.09688            0.171107  -0.131392   0.141438
 H             0.371603    3.63554    1.13266           0.0618321  -0.233784 0.00102247
 H              1.28606    3.05847    1.42374           0.00607189 -0.00465791   -0.206756
 H              2.19269    3.60274     1.1384            -0.13249  0.0425271  -0.189287
 H              3.09563    3.03564    1.42403          0.00330728 -0.0978639  0.0451976
 H              4.03327    3.58932    1.14714          -0.00511824  -0.0896937     0.50066
 H             0.439847    4.73862    1.17902           -0.084672 -0.0473815  -0.152834
 H              1.30688    4.14211    1.44943           -0.011504   0.134473   0.255187
 H              2.21655    4.71526    1.20229           0.0119929   0.073068   0.262058
 H               3.1182    4.11721    1.47055           -0.109841  -0.152216  0.0205968
 H                3.992    4.73205    1.21006           -0.116822   0.134459  -0.113038
 H             0.447998  -0.307239    2.04533          -0.0211296   0.129786 -0.0337356
 H              1.32086   0.308821    2.34701          -0.0756877  -0.011508  0.0771107
 H              2.18692  -0.280719    2.07003           -0.167994   0.117736 -0.0642493
 H              3.09142   0.327655    2.33491            0.201027  0.0948046 0.00255159
 H              3.97883  -0.281775    2.06776            -0.23229 -0.0484268  -0.136657
 H             0.413143   0.825566    2.08426           0.0914949  -0.142896   0.057306
 H              1.30415    1.39757    2.38635           -0.146748  -0.253199  0.0773191
 H              2.20089   0.870104    2.04786           -0.0510427 -0.00354915   -0.101229
 H              3.09538    1.39557    2.35997            0.158949  0.0887712 -0.0185302
 H              4.01857   0.858267    2.06038            0.272176 -0.0271455 -0.0917132
 H             0.407136    1.92675    2.05984          0.000475295    0.172514    0.102948
 H              1.30193     2.4964    2.38222          -0.0263874   0.183482 -0.0866098
 H              2.19289    1.93574    2.05214          -0.0588683   0.120741  0.0458964
 H              3.08062    2.47911    2.37845          -0.0297265 -0.0139829  0.0688739
 H              4.00043    1.95262    2.04898           -0.0306337    0.049629 -0.00397874
 H             0.405633    3.03674    2.08434            0.277959  0.0546616  0.0511188
 H              1.31299    3.58638    2.38568            0.223966  -0.260272  -0.113278
 H              2.17098    3.02959    2.06792           0.0772597   0.153003  0.0616644
 H              3.09638    3.56543    2.38462           -0.208641  -0.117438  0.0630808
 H              3.96783    3.04674    2.07788          -0.0187144 -0.0547231  0.0569825
 H             0.395887    4.14268    2.09782           -0.147747  -0.341491  -0.188261
 H              1.32572    4.71017    2.37364            -0.116617 6.51079e-05   -0.127733
 H              2.21428    4.13463    2.11262            0.0217155 -0.00637126   -0.197342
 H              3.08894    4.69532    2.41482          0.00371291  -0.123509  0.0699814
 H              4.01413    4.14952    2.13459          -0.00352335   0.0637247    0.214311
 H             0.429035   0.251385    3.00307          -0.00869282   0.0829708    0.250012
 H                1.339  -0.301605    3.25632            0.0609091 -0.00631922    0.126086
 H              2.21385   0.296262    2.99591           0.0658953  -0.123664   0.122454
 H              3.11286  -0.295713    3.25839           -0.291674  0.0436819   0.190769
 H              4.01126   0.293223    2.97947            0.105811  0.0308636  0.0798372
 H               0.3963     1.3804    3.01625          -0.0400175   0.148823  0.0105109
 H              1.30624   0.830244    3.31144          -0.0904915   0.118123 -0.0374387
 H              2.20881    1.38884    3.00371            0.130202  -0.182298  -0.167077
 H              3.09884    0.83366    3.30434            0.022465  -0.142308  -0.097366
 H              4.00058    1.40092    3.01255           -0.026347  -0.220335  0.0569755
 H             0.408515    2.49552    3.02758           -0.184025   -0.18424   0.100034
 H              1.30066    1.93668    3.33454             0.18074 -0.0151681   0.194056
 H              2.18911    2.47808    3.01506           -0.159398  0.0497802   0.111705
 H              3.09247    1.93368    3.33967           0.0921633  0.0857032  -0.101175
 H               3.9953    2.49773    3.01782            0.143352  0.0136351 -0.0145028
 H             0.405028    3.59042    3.03692           -0.142925 0.00436528  0.0862362
 H              1.30198    3.01318    3.34792          -0.0225718   0.186143   0.114689
 H              2.19808    3.55381    3.02428           0.0786397   0.217847 -0.0446871
 H              3.08344    2.99701    3.35645           0.0629007   0.117372  -0.125941
 H              3.98275    3.58325    3.07424          -0.0215375  -0.071431   0.163013
 H             0.465517    4.72867    3.05983           -0.208644  -0.155585   0.309215
 H              1.31557    4.11238    3.31024          -0.00716389   -0.128772   0.0943448
 H              2.19708    4.71887    3.06113            0.221808 -0.0439628 -0.0365434
 H              3.07353    4.08215    3.32814           0.0596996 -0.0525252  -0.160029
 H              3.95208    4.69544    3.09679            0.386849 -0.0752798  0.0972326
 H             0.427429  -0.315784    3.93513             0.168437    0.170408 -0.00718702
 H              1.31513   0.226736    4.25184          -0.0905341  0.0916137  -0.025748
 H              2.24136  -0.329579     3.9021          -0.0444612  0.0537755  0.0827479
 H              3.11238   0.250289    4.24464            0.131279   0.215616   -0.10197
 H              4.01728  -0.304132    3.90104          -0.0480631  0.0881123 -0.0893711
 H             0.383079   0.797074    3.95144           -0.160525  0.0537596   0.127749
 H              1.28381    1.34089     4.2864          -0.0177683   0.231663  -0.211462
 H              2.20153   0.823549    3.96402           -0.247868   0.198458  -0.192762
 H              3.09123    1.36034    4.28117          -0.0213035  0.0721695 -0.0786234
 H              4.02439   0.802891    3.95287            0.015807   0.210964  -0.137533
 H             0.378544    1.92635    3.98062           0.0314916  -0.159959  -0.159177
 H              1.30967     2.4396    4.30666           -0.134421 -0.0293143 -0.0385249
 H               2.1873    1.91124    3.94844             0.214499 -0.00214361 -0.00472715
 H              3.06209    2.45426    4.31837           -0.194467  0.0217241   0.173407
 H              3.99753    1.92944    3.95858            0.120871   0.131328 -0.0119727
 H             0.403473    3.03032    3.97968           0.0333045    -0.0187   0.123638
 H              1.32555    3.57807    4.31088          -0.0900796 -0.0550277    0.19977
 H              2.18685    3.00226    3.98041            0.070017 -0.0791681  -0.156393
 H              3.04601    3.57027    4.32784            0.089874 -0.0557347    0.13584
 H              3.95599    3.03445    4.01946          -0.0641441  -0.187405  -0.219089
 H             0.466309    4.16213     3.9756           0.0680654 -0.0819792 -0.0404441
 H              1.39264     4.9506    3.96036          -0.0298107   0.112567  0.0177948
 H              2.18582    4.15056    3.97003          -0.0821637   0.171533  -0.152205
 H              2.99623    4.95767    3.91709           -0.205975  0.0281519   0.048287
 H              3.89835     4.1627    4.02663            0.192617 -0.0846122 -0.0860982
