125

 H             0.788246  -0.646001     0.5811           0.0120217  -0.105657 -0.0939976
 H              1.36831   0.282637   0.464398          -0.0141941   0.328361   0.114492
 H              2.11239   -0.55981   0.615214           0.0357946    0.15707   0.284115
 H              3.04991   0.272258   0.470873            0.150042 -0.0904887  0.0130536
 H              3.64604  -0.632224   0.502573           -0.277388  -0.146624  0.0836801
 H             0.461879   0.838374   0.137784            0.160821   0.191689  -0.151541
 H              1.31428    1.42366   0.473271            0.178421    0.12956 -0.0704111
 H              2.22034    0.87653   0.105991          -0.00460187    0.082346    0.284296
 H              3.09269    1.39302   0.457504          0.00646907   0.064456  0.0536969
 H              3.97885   0.832245   0.122563           0.0162796  0.0981744 -0.0030528
 H             0.410337    1.95252   0.160778           -0.198067 0.00441311 -0.0708057
 H               1.3164     2.5021   0.473898          -0.0647473 -0.0915027  0.0262976
 H              2.22226    1.96667   0.160005           0.0181788  0.0101402 -0.0771841
 H              3.11727    2.49675   0.502502             0.24022   0.119428 0.00692181
 H              3.99113    1.95925    0.16006           -0.191946  0.0565808   0.331565
 H             0.411858    3.07375   0.186119          -0.0377675   0.187926   0.192035
 H              1.30456    3.58608   0.497397          -0.0656938   0.113712   -0.18373
 H              2.19953    3.05966   0.178134            -0.24512   0.231173   0.113657
 H              3.09329    3.60516   0.498867            0.170464  0.0628142 -0.0668577
 H              4.00914    3.06898   0.139954           -0.105494 -0.0852212 -0.0516197
 H             0.431625    4.21507   0.228341            0.195855   -0.11479  -0.139813
 H              1.31877    4.74682   0.565592           -0.135931  -0.124683 0.00793409
 H              2.18417    4.16366   0.211211          -0.0388826  0.0228714  0.0663307
 H              3.07198    4.71977   0.526696            0.375803 -0.0317051   0.110435
 H              3.97708    4.21549   0.191617           0.0940346   -0.13988  0.0624763
 H             0.457705   0.286845    1.09367           0.0216165  0.0807868 -0.0543056
 H              1.36785  -0.238361      1.418           0.0129381   0.010873   0.221283
 H              2.21557   0.374508    1.13525           0.0173453  -0.100824  0.0132526
 H              3.04468  -0.307665    1.38422            0.058297  0.0766513 -0.0281021
 H              3.98652   0.258555    1.09436           0.0468072 -0.0302224    0.20034
 H              0.40133    1.38821    1.09514          -0.0426995 -0.0365122   0.185089
 H               1.3067   0.882636      1.421          -0.0434869  -0.223301  -0.191829
 H              2.20751    1.43974    1.10863           -0.322598  -0.148037   0.281374
 H               3.1219   0.827147    1.41638          -0.00715766  -0.0360505  -0.0868782
 H              3.99445    1.40248    1.09326            -0.169945   0.0369455 -0.00442953
 H             0.394816    2.49698    1.12928           -0.096558    0.12694 -0.0275358
 H              1.29649    1.96106    1.43614          -0.0605093 -0.0596655  0.0811287
 H              2.19551    2.50604    1.12253           0.0964431   0.169753  -0.172438
 H              3.10744    1.93808    1.42237           -0.0425855 -0.00524855   0.0550248
 H              4.00059    2.50274    1.11075           -0.192358  0.0806892  0.0559377
 H             0.406806    3.61114    1.15591           0.0349796 -0.0697546   -0.15067
 H              1.30042     3.0239    1.45802          0.00183147 -0.0576502   0.239764
 H              2.19868    3.59935    1.14645           -0.113931   -0.18931   0.154793
 H              3.10305    3.03226    1.45165            0.185635  -0.102791 -0.0546402
 H              3.97328    3.58671    1.10622           0.0243446   0.220054  -0.189556
 H             0.443154    4.74884    1.22021          -0.00677376   -0.180811   -0.105557
 H              1.30809    4.11937    1.46544            0.140699 -0.0103439 -0.0809338
 H              2.19639    4.70368     1.2143           -0.192805   -0.21821   -0.10633
 H              3.08711    4.13429    1.45863           -0.251676  -0.211534  0.0331046
 H              3.97306    4.72036    1.17361           -0.093568 -0.0216373 -0.0015248
 H             0.479006  -0.297348    2.03325          -0.0252796   0.105167  0.0659869
 H               1.3244   0.319373    2.35729           0.0967536   0.198904 -0.0895626
 H              2.22564  -0.287027    2.07131          -0.00963549   0.0433286   -0.145383
 H              3.10713   0.320171    2.34614           0.0635831 -0.0453733 0.00646255
 H              3.94215  -0.280478    2.03702            0.121229  -0.212094   0.181733
 H             0.427063   0.839261    2.05298          -0.0531789 -0.0247122  -0.169073
 H              1.31304    1.40514    2.38763           -0.173546 -0.0290826 -0.0627259
 H              2.19922   0.873341    2.06646            -0.129671  -0.0160801 0.000725067
 H               3.0961    1.39881    2.37812           0.0743584  -0.171094 -0.0856255
 H              3.99948   0.846134    2.04125           -0.105171   0.373269  -0.064549
 H             0.420571    1.94566     2.0817           0.0320237  -0.132639   -0.11384
 H               1.2964     2.4741    2.39872            0.282107  -0.145482  0.0907181
 H               2.1956    1.94572     2.0814           -0.164759   0.183877   0.128647
 H              3.09524    2.48044     2.3879           0.0683347 -0.0930659  0.0597487
 H              4.00881    1.95519    2.06095            0.120799  -0.250219  -0.256916
 H             0.407949     3.0272    2.08171           0.0484573 -0.0646407   0.202455
 H              1.30058    3.56109    2.41078            0.163302   -0.12517  -0.044329
 H               2.2071    3.02275    2.09667            0.112668 -0.0592734  -0.235433
 H              3.09258    3.57767    2.40176            0.144723  0.0519542 -0.0708448
 H              4.00308    3.05735    2.07871          -0.0743047   0.192505 -0.0130564
 H             0.412522    4.15032    2.11859           0.0404893  -0.273451   0.185872
 H              1.32039    4.70775    2.39625           -0.107769  0.0594349  -0.133879
 H              2.19279    4.11916     2.1114           0.0318303  0.0788847   0.257638
 H              3.07816    4.70394    2.39437           -0.0302624   -0.156196 -0.00378302
 H              3.99223    4.14825    2.09419          -0.0314677  -0.197049 -0.0437976
 H             0.391327   0.286511    2.97379            0.145691  -0.127372 -0.0663575
 H               1.2967  -0.283375    3.24195           -0.164513   0.176669  0.0184622
 H              2.20123   0.284658    2.99074          -0.00286975   0.0238453  -0.0298465
 H              3.11052  -0.287042     3.2369           -0.069731  0.0387259   0.019113
 H              4.00498    0.28481     2.9959              -0.139  0.0220932  -0.032642
 H             0.413667    1.36564    3.02852          -0.0102708   0.101935 -0.0520979
 H              1.30524   0.828171    3.30485            -0.08375  0.0246376  -0.145831
 H              2.20301    1.38707    3.02251           -0.158432   0.291788   0.130812
 H               3.0936   0.829152     3.3177           -0.269796 -0.0236411  -0.100024
 H              3.97936    1.37602    3.00653           -0.0444518    0.107892 -0.00639559
 H             0.387452    2.46854    3.01726           -0.0986296   -0.292178 -0.00617696
 H              1.30558    1.91997    3.35017            0.241251 -0.0567227 -0.0692161
 H              2.17841    2.47971    3.03467          -0.0293843   0.203095   0.160446
 H               3.0808     1.9324    3.32988            0.136249 -0.0538264   0.203867
 H              4.00553    2.49019    3.01385            0.115486   0.346851 -0.0389755
 H             0.394582    3.57602    3.05003            0.182767  0.0271859  0.0778882
 H              1.28385    3.01756    3.34235           -0.168293  -0.063894   0.219828
 H              2.18347    3.55674    3.04685          -0.0939442  0.0172106 -0.0406306
 H              3.08633    3.01602    3.33945            0.093598  0.0475972  0.0214603
 H              3.99642    3.57777    3.04124           0.0146289   0.171586   0.163272
 H             0.475079    4.74836    3.07266            0.201118  0.0623304  -0.186856
 H              1.32087    4.10026    3.31032            0.054907    0.13512  -0.147529
 H              2.20781    4.70693    3.06064          -0.0398158  -0.098993 -0.0345245
 H              3.07567    4.09203    3.31646          -0.0989666  0.0174207   0.089369
 H              3.94281      4.721    3.06567           -0.132304  0.0248826 -0.0446902
 H             0.402311  -0.321361    3.88439           0.0526204  0.0234019 -0.0738289
 H              1.28777   0.224795    4.23468            0.246943  0.0313504   0.174049
 H              2.20921  -0.307215    3.89767           0.0131463  -0.134022  -0.169355
 H              3.06887   0.236339    4.23414          -0.0909736  -0.112304  -0.159092
 H              3.96098  -0.310786    3.92642           0.0135067 -0.0629819 -0.0326456
 H             0.366686   0.801315    3.96556            0.181164   0.126192  -0.135678
 H              1.28027    1.34631    4.28045             0.144421 -0.00816391  -0.0933637
 H              2.17749   0.826118    3.94915          -0.0283511   0.131061 -0.0357221
 H              3.10501    1.35414    4.28365          -0.0453283   0.101353  -0.263076
 H              4.00951   0.793084    3.98434            0.115871  0.0340237   0.178678
 H             0.400557    1.92816    3.98533             0.20867   -0.12752 -0.0704528
 H              1.28664    2.46831    4.32871          -0.0484118  -0.133986 -0.0945965
 H               2.1833    1.92353    3.99286          -0.0787697  -0.067881   0.354067
 H              3.08367    2.46044     4.3003          -0.0640841 -0.0853768   -0.15774
 H              3.99227    1.92503    3.96181           0.0756828  -0.239472 -0.0519031
 H             0.400395    3.03973    3.99214           0.0560709   0.196632  -0.119517
 H              1.32041    3.58345    4.31687          0.00753575   -0.21694  0.0379302
 H              2.17693    3.01895    3.99058           -0.178245 -0.0399895  0.0991847
 H              3.04452    3.57419    4.29359           0.0798463  -0.114723 -0.0231925
 H              3.98222    3.03667    3.99477          -0.0416756  0.0308898  -0.198498
 H             0.466629    4.20259     4.0012          -0.0534718   0.120777  0.0391572
 H              1.43432    5.03642    3.83902           -0.0482518 -0.00629628   0.0480143
 H              2.18907    4.15242    3.98026          -0.0242917 -0.0963619  -0.205627
 H              3.00479    4.94587    3.95614            0.231072  0.0546083  0.0762857
 H              3.92324     4.1611     4.0047          -0.0807068   0.148835   0.018677
