125

 H             0.771725  -0.647998   0.573304             0.14571 0.00400705  -0.097428
 H              1.30822   0.278913   0.454516           0.0615059   0.132786 -0.0505939
 H              2.16237  -0.489416   0.502537            0.175277  0.0203747  0.0583417
 H              3.06549   0.304629   0.486778           -0.260896    0.00458   0.315951
 H              3.67693  -0.634636   0.560227           -0.307788  0.0285181   0.139338
 H             0.394456   0.838847   0.196493          -0.0229535  0.0556752  0.0950278
 H              1.30686    1.41136   0.475291           0.0519195  0.0872727 -0.0443405
 H               2.1716   0.826834   0.151387            0.117016   0.180963  0.0904048
 H              3.06678    1.39883   0.476616           0.0771981   0.188875  0.0162001
 H              3.92858   0.823798   0.109482           -0.118786   0.243496  -0.257022
 H             0.402874    1.96338   0.182277           -0.162558  -0.065679  0.0421808
 H              1.28699    2.52392   0.506162           -0.187046  0.0389017 -0.0251479
 H              2.20434    1.96497   0.157672            0.132822  -0.017577  0.0450859
 H              3.09128     2.5079   0.481851            0.173644  -0.123515 -0.0226482
 H              3.94646    1.95175   0.114312            0.197144  0.0652561  0.0294378
 H             0.400075    3.06701   0.181181          -0.0633982  -0.010655   -0.12069
 H              1.32387    3.60708   0.504588           0.0145925   0.216115 -0.0489587
 H              2.18623    3.05339   0.168617            0.074353  -0.129186  0.0718409
 H              3.10905    3.60327   0.485681          -0.00884338   -0.365091   0.0656419
 H              4.00024    3.05106    0.17486           0.0636611 -0.0338498  0.0443615
 H               0.4488    4.21356   0.219909           -0.124236  0.0957627  -0.263762
 H               1.3595    4.74221   0.541863            0.116238  -0.210449  -0.218619
 H              2.23918    4.16437   0.194918            0.159357 -0.0385841   0.115123
 H              3.11858    4.71357   0.554593           -0.101298  -0.119005  -0.112446
 H              4.03395    4.18884   0.210307           -0.274071  0.0949667  -0.250416
 H             0.397962   0.267479    1.11779            0.110957  -0.162004  -0.137937
 H              1.36587  -0.254731    1.41365            0.219288   0.104122   -0.11342
 H              2.21321   0.344678    1.15353          -0.0440797  0.0443315   0.145207
 H              3.06778  -0.269211    1.39271            0.183078  0.0830208   0.116837
 H              4.01919    0.29554    1.08327           0.0876299 -0.0319518 -0.0025047
 H             0.392766    1.40449    1.12355           0.0993341  -0.137953    0.25682
 H              1.29567   0.844251    1.40953           -0.139949  -0.012533   0.016691
 H              2.19193    1.42126    1.11267          -0.0664711   0.172894  0.0535316
 H              3.10504   0.854958    1.42947           -0.043086  -0.058606 0.00516293
 H              3.99864    1.40441    1.07282           -0.098789 -0.0545639 -0.0304161
 H             0.396088    2.51043    1.14164           0.0212842   0.180748  -0.134126
 H               1.2841    1.93909    1.43729           0.0593769  0.0782432  0.0100767
 H              2.20494    2.50763    1.12252             -0.10501   -0.125035 -0.00276204
 H              3.10224    1.94854    1.42176          -0.0438293 -0.0655815 -0.0275916
 H              4.00823     2.4919    1.10714          -0.0429915 -0.0912084 -0.0516195
 H             0.427585    3.61221    1.14632          -0.00766303 -0.00479542   -0.239845
 H              1.31176    3.05094    1.45609            -0.128484    -0.19852 -0.00917377
 H              2.21342    3.59118    1.14233           -0.248771  -0.120515 0.00513024
 H              3.10117    3.03748    1.43347           -0.069519  -0.185688  -0.152839
 H              4.00842    3.60332    1.16983          -0.0785314 -0.0669366 -0.0812066
 H             0.454817     4.7435    1.20521           -0.228993  -0.109376 -0.0587409
 H              1.33061    4.15498    1.46448            0.199303 -0.0846137   0.121067
 H              2.25111    4.70378    1.20016            0.199029 0.00315781   0.210875
 H              3.10315      4.122    1.47632           0.0455594   0.105974  0.0978587
 H               4.0107    4.72092     1.2228           -0.166167  0.0546836 -0.0508698
 H             0.448357  -0.301376    2.06349           -0.101691   0.139474  -0.137865
 H              1.31597   0.301229    2.35763            0.174309   0.241388  0.0362066
 H              2.21583  -0.278077    2.08613           -0.103881  0.0509507 -0.0223578
 H              3.10284   0.305328    2.33427          -0.0506249 -0.0892502   0.249439
 H              3.96196  -0.300284    2.02308          -0.0994058   0.093041  -0.190956
 H             0.414571   0.840531    2.04196           -0.128973  0.0342829  -0.169202
 H              1.29239    1.40413    2.37567           -0.173903  0.0206655 -0.0564484
 H              2.19691   0.860935    2.07323            0.118238  -0.058591  -0.267012
 H              3.11453    1.39236    2.37691            0.156471  0.0484321 -0.0562442
 H              4.00304   0.836781    2.03144           0.0338305 0.00760803   0.051797
 H             0.395803     1.9511    2.08334          -0.0913057 -0.0889995   0.139522
 H              1.29929    2.50157    2.38622           -0.198428  -0.075467  0.0544556
 H              2.18722    1.94957    2.07414          -0.0281114  -0.221845  -0.274964
 H                3.096    2.47021    2.39291           0.0129796  0.0537562   0.257575
 H              3.99205    1.95447    2.04383            -0.11927  0.0414364   0.174954
 H               0.3877    3.04048    2.09641           -0.0478117 -0.00674823  -0.0549067
 H              1.30796    3.57557    2.38967           -0.041457  0.0860658  -0.124285
 H              2.21212    3.02133    2.09225           -0.0198971 -0.00648742    0.141419
 H              3.10794    3.56827    2.41181          -0.0930548    0.11486  0.0570182
 H              4.01704    3.04255    2.09556            0.227678 -0.0626596  0.0917494
 H             0.421281    4.14252     2.1018            0.216973 -0.0897983   0.159535
 H              1.30983    4.71709    2.36728          -0.0836938   0.213457    0.11297
 H              2.20117    4.11341    2.11206             0.0778338     0.208752 -8.71544e-05
 H              3.07039    4.68261    2.39199           -0.123821   0.196212  0.0941844
 H              4.00545    4.14364    2.13582          -0.0925461 -0.0695838  0.0719774
 H             0.416764   0.267268    2.98421           0.0750105  -0.176288  0.0989562
 H              1.33126  -0.308243    3.25288            -0.140353    0.105716 -0.00311132
 H              2.18614   0.286546    2.99958            0.168357  0.0228371 -0.0346214
 H              3.08415    -0.2819    3.24292             -0.139312     0.123265 -0.000995953
 H               3.9968   0.305258    2.96756          -0.0758636   0.108775   0.160606
 H             0.402595     1.3597    3.01111          -0.0500996   0.232741   0.241581
 H              1.29777   0.824455    3.30636             0.10255 -0.0321346   0.212337
 H              2.19432    1.39997    2.99902          -0.0793376  -0.041624  -0.116929
 H              3.07754   0.829465    3.31246            0.146601 -0.0407247 -0.0938857
 H              4.01616    1.40455    3.00284           -0.124297 -0.0202504  0.0366472
 H             0.381094    2.46765    3.03502          -0.0657648 -0.0312747  -0.218464
 H              1.29765    1.91755    3.34237              0.17031 -0.00764408    0.246405
 H              2.19167    2.48149    3.03243          -0.0512582   0.113145 -0.0191025
 H              3.10208    1.92336    3.34286          -0.0473644  -0.218604 -0.0760916
 H               4.0094    2.48265    3.03046            0.019099  0.0111281  0.0821789
 H             0.372096    3.59169    3.05072            0.142076    0.12221 0.00447326
 H              1.28045    3.00928    3.33884           0.0309792  0.0893613  -0.265918
 H               2.2098    3.56545    3.03482          -0.00780113    -0.12781  -0.0155005
 H              3.09834    3.01246    3.35159           -0.121573  0.0917128   0.134481
 H              3.99835     3.5985    3.07204          -0.0894859 -0.0701532 -0.0157235
 H             0.456621    4.74264    3.06552            0.153959 -0.0682888  0.0253644
 H              1.29935    4.07675     3.3194           -0.125041   0.142441 -0.0906137
 H              2.18402    4.71004    3.03854           0.0910081  0.0224266   0.141115
 H              3.07876    4.10224    3.33237            0.015623     0.1097   0.133304
 H              3.92692     4.7344    3.06425            -0.20773   0.188797   0.230636
 H             0.441022  -0.376878    3.90165            0.0581639 -0.00948868   -0.165434
 H              1.29574    0.23685    4.24006           -0.116709  -0.124226  0.0473037
 H              2.19789  -0.318937    3.91837          0.00104999  -0.287458   0.234771
 H              3.09643   0.247913    4.24455           0.0240142  -0.197308  -0.159804
 H               3.9754  -0.309417     3.8725           -0.170029  -0.154226  -0.175929
 H             0.367892   0.751757    3.94029            0.194012  -0.236166 -0.0475134
 H              1.28063    1.34262    4.28816           0.0713566   0.119726  0.0796061
 H              2.19294    0.79948    3.95608            0.308558 -0.0137459    0.26139
 H              3.10729    1.36751    4.27214           0.0302867  0.0335082   0.288913
 H              4.01036   0.817544    3.93774           -0.197653  0.0611792  -0.133171
 H             0.390394    1.90178    3.98404           -0.143946  -0.060266  0.0874395
 H              1.29215    2.45132    4.30094           0.0704417  -0.187248  -0.122086
 H              2.19465    1.90294     3.9683           0.0928847  -0.177056 -0.0875933
 H              3.07579    2.46215    4.29241           -0.133244  0.0228677  -0.201178
 H              4.00407    1.94091    4.00088            0.253695  -0.242464 -0.0580763
 H             0.391679    3.03167    4.00308            0.110575  0.0549283  -0.208624
 H              1.29956    3.58114    4.30185            0.184707  -0.231465  -0.203217
 H              2.18841    3.00437    3.96712           0.0391157  -0.105379   0.194997
 H              3.06087    3.59395    4.32072            0.075675  -0.151985 -0.0926524
 H              3.97274    3.04818    4.01177           0.0016329   0.121579  0.0778862
 H             0.456149     4.1911    3.99557            -0.21219   0.161416 -0.0372527
 H              1.42955    4.99859    3.83821            0.345589   0.199428  0.0080243
 H              2.18131    4.16985    3.98585           0.0885545   0.148127 -0.0899107
 H              2.95502    5.03252    3.82936          -0.0797727  0.0223504  -0.150162
 H              3.91346    4.21346    4.03753            0.251434   0.141706 -0.0463976
