125

 H             0.854601  -0.690659   0.497548          -0.0984589   0.050598 -0.0961615
 H              1.32888   0.317358   0.457868            -0.182479 -0.00645459  -0.0749976
 H              2.14208   -0.48579   0.509858           -0.189365  -0.112689 -0.0292407
 H              3.07263   0.296191   0.431293          -0.0835903  0.0988417   0.191409
 H              3.72634    -0.5921   0.533056           0.0166924  0.0966012  0.0606801
 H             0.420648   0.834069   0.162003           -0.237953  0.0070226 -0.0112658
 H              1.30206    1.41515   0.476158          -0.0528733 -0.0023949 -0.0476056
 H              2.21458    0.87438    0.14463           -0.113814  -0.031995  -0.179862
 H              3.11621    1.42216   0.466091           0.0472411  -0.156739  0.0375643
 H              3.99624   0.820375   0.178488           0.0894627 -0.0498331   0.138683
 H               0.3716    1.97045   0.181862            0.175202   0.179777   -0.34666
 H              1.28401    2.51887   0.477068          0.00607259  0.0235419  -0.232784
 H              2.20099    1.98039   0.168512            0.142391  0.0268153   0.121712
 H              3.10955    2.52649   0.488935            0.011426  -0.116612  0.0134964
 H              4.02219    1.96539   0.133851          -0.0589998  -0.186173    0.10223
 H             0.396354    3.08927   0.179376          -0.0630441  -0.020791 0.00061422
 H              1.30636    3.61778   0.495357          -0.0107372   -0.16717   0.194931
 H              2.19166    3.06098     0.1705           -0.119546  0.0362899 -0.0682853
 H              3.10302    3.61111   0.501141          -0.0999366   0.132698    0.11242
 H              4.01243    3.07214   0.170195            0.198997  -0.337739  -0.294067
 H             0.396824    4.22543   0.220787          -0.00929142   -0.263209    0.127539
 H              1.30602    4.73462   0.525077           0.0488115   0.129474  -0.109965
 H              2.20064    4.16978   0.195299             0.13508  0.0429899   0.105451
 H              3.10415    4.71523   0.526465           0.0298668  -0.059364   0.166273
 H              4.00964    4.17004   0.221867          0.000681941   0.0452034  0.00756173
 H             0.428636    0.22373    1.10795            0.138067  0.0723422   0.133349
 H              1.37159  -0.265587    1.39014           0.0752362  -0.104025  -0.171475
 H               2.2017   0.358846    1.12644          -0.0555531 -0.0021583  -0.119333
 H              3.04548  -0.281986    1.38493            0.173644   0.171579  -0.260374
 H              3.96785    0.28896    1.13404           -0.171821  0.0221089 -0.0342641
 H             0.383305    1.38301    1.10698          -0.0338229  0.0452228 -0.0128363
 H              1.28313   0.851918    1.41533           0.0294221   0.139007  -0.180393
 H              2.18571    1.43356      1.097           -0.119189  0.0726396  0.0675365
 H              3.09237   0.870141    1.41021           -0.145739  -0.158004  0.0317511
 H              4.00424    1.39035    1.10051          -0.0963191   0.189173 -0.0436493
 H             0.394217    2.49502    1.13346          -0.0717379  0.0517776 -0.0402409
 H              1.29651    1.95694    1.42899            0.127124  -0.166927  -0.094995
 H              2.19743    2.51063    1.13099            0.216013   0.039189 -0.0902873
 H              3.10065     1.9471    1.41961            0.171746  -0.135462 -0.0307744
 H               4.0027    2.49624    1.11373            0.167853   0.168207 -0.0577884
 H             0.407755     3.6085    1.15169           0.0269237   0.166588  -0.203594
 H              1.29901    3.05368    1.45555           0.0723039 0.00761739   0.083836
 H              2.20167    3.58363    1.15178          -0.0944934   0.182355   0.118162
 H              3.08711    3.02926    1.45544           -0.309138 -0.0840649 0.00454215
 H              3.97899    3.59686    1.13159           -0.171666   -0.17529  -0.154356
 H             0.394561    4.75278    1.21419           0.0769581  -0.211986  0.0989938
 H               1.3128    4.13997    1.44436            0.113349  -0.262758 -0.0459868
 H              2.22601    4.69888    1.17818            0.167079   0.115034 -0.0574795
 H              3.10408    4.13062    1.46251           0.0473838 -0.0196791   0.246864
 H              3.98059    4.72432    1.18088          -0.0151521 -0.0127956  0.0568502
 H             0.477212  -0.322954    2.06709           -0.066527  -0.126358  -0.241463
 H              1.31343   0.308373    2.34667            0.137484  0.0382237   0.212805
 H              2.20379  -0.282287    2.07965          -0.0705349  0.0436281 -0.0731082
 H              3.07565   0.305655    2.34098             0.26587 -0.0502416  0.0908955
 H              3.93844  -0.320316    2.03853           0.0679054 -0.0108315  -0.319575
 H             0.389235   0.823841    2.03956           0.0252741 -0.0192089   0.320655
 H              1.28774     1.4028    2.36625          -0.0173463 -0.0330191  0.0152131
 H               2.1984   0.862615    2.05928          -0.0379124    0.06368 -0.0432437
 H              3.08802    1.40578     2.3757          -0.0446227   0.199115   0.168151
 H               3.9738   0.836789    2.07463          -0.0527183  0.0575043  -0.228888
 H             0.389009     1.9561      2.068           -0.145694 0.00108236 -0.0419581
 H              1.29873    2.48919    2.39844           -0.116785  -0.490947  -0.160236
 H              2.18652    1.93076    2.06123           -0.0301336 -0.00969382    0.330359
 H              3.09081    2.48001    2.39023          0.00249759 -0.0508821   0.072733
 H              3.99915    1.93829    2.07552          -0.0774564   0.114844  -0.194236
 H             0.372173    3.04021    2.09888          -0.0394267   0.115374 -0.0229531
 H              1.28896    3.57978    2.38957           -0.180424   0.122052  -0.154474
 H              2.19024    3.03222    2.10665           0.0145943  0.0373471   0.109737
 H              3.09879    3.55569    2.39002           0.0900446 -0.0125253 -0.0978969
 H              4.01526     3.0456    2.07807           -0.089025   0.154365 -0.0971188
 H              0.38724    4.17401    2.13793            0.237617   0.056783  0.0138843
 H               1.3189    4.70729    2.38631           0.0735701  0.0541143   0.048219
 H              2.20448    4.12579    2.10889            0.263444  0.0123099  0.0407097
 H                3.085    4.67786    2.41811           0.0347831    0.25172 -0.0529258
 H              4.00824    4.13823    2.10149            -0.145488  -0.0075233 -0.00369121
 H               0.4094   0.281723    3.00168            0.141257 -0.0997084   0.209687
 H              1.32459   -0.30879     3.2269           -0.151281  0.0200949   0.014833
 H              2.20836   0.286979    3.00022          -0.0170908  0.0222298 -0.0360954
 H              3.09516  -0.302952    3.25721           0.0224826   0.128711   0.203591
 H              4.03083   0.272758    2.99501          -0.0116887 0.00336858  0.0458149
 H             0.384216    1.37491    3.02353           0.0798283  -0.175643 -0.0686951
 H              1.30661   0.810054    3.29653           0.0864843  -0.123197   0.154743
 H              2.19166    1.39077    3.00608           0.0612765  -0.225151   0.110217
 H              3.09888   0.830849    3.30026             0.116404   -0.237026 -0.00200749
 H              3.99706    1.37957     3.0092           0.0743039 -0.0541052  0.0129567
 H             0.393444    2.49172    3.03693          -0.0877125 -0.0602199   -0.27364
 H              1.29708    1.92159    3.34148           0.0145005   0.113531  0.0687975
 H              2.18726    2.46938     3.0247          -0.0716696 -0.0603141   0.128428
 H              3.08355    1.92676    3.35894          -0.0192258  -0.101626   0.126999
 H              3.96663    2.46095    3.04976           0.0260606  -0.170428  0.0602527
 H             0.400718    3.60726    3.04689          -0.0774943 -0.0694266   0.110428
 H              1.28571     3.0217    3.35729           0.0520095 0.00344828   0.164763
 H               2.1909    3.56766    3.04989           0.0510419   0.169799  -0.109445
 H              3.07369    3.00521    3.35118          -0.0697325 -0.0267457 -0.0404258
 H              4.00067    3.57321    3.03653            -0.196181    0.278907 -0.00785194
 H             0.483067    4.74295    3.08306            0.168811  0.0565233 -0.0601903
 H              1.31839    4.09341    3.33844          -0.0945758 -0.0790288   0.171536
 H              2.19919    4.70792    3.05158          -0.0405688   0.193564  -0.100707
 H              3.08809    4.06507    3.33158           -0.106031  -0.053867   0.299597
 H              3.97144    4.68856    3.04453           0.0298983  -0.148275   0.124893
 H             0.462665  -0.330563    3.93391          0.000372575  -0.0604797     0.18024
 H              1.32006   0.254365    4.22543            0.265081     0.2272 -0.0505127
 H              2.20778  -0.330064    3.90539          -0.00486193   -0.248952   -0.168192
 H              3.08178   0.249217    4.26174           -0.126527  0.0780422   0.108176
 H              3.96833  -0.295109    3.93503           -0.146867  0.0141099   0.090897
 H             0.422685   0.806473    3.96245           -0.030103  -0.168535 -0.0938057
 H              1.30339    1.36405    4.27354           0.0847797 -0.0789947  0.0560463
 H              2.20709     0.8238    3.94345            0.101232 -0.0541472 -0.0591299
 H              3.08344    1.34168    4.31163            0.104916   0.424849   0.143023
 H              3.99913    0.79824    3.95994           0.0841747 -0.0480002 -0.0689594
 H             0.393235    1.94795    3.97095           -0.145352   0.228687   0.057332
 H              1.29023     2.4613     4.2926            0.133874   0.171052 -0.0871745
 H              2.19232    1.91214    3.98073            0.100263 -0.0519744  0.0195107
 H              3.07837    2.46259    4.31999          -0.0376006 -0.0263791 -0.0895753
 H              3.97416    1.89689    3.99226           0.0694888   0.029187  -0.146786
 H             0.398584    3.03844    3.98853           0.0205828  0.0663036  -0.100722
 H              1.30466    3.57489    4.34941          -0.0359069   0.129348 -0.0628669
 H              2.18129    3.02599    3.98173           -0.148885   0.292827 -0.0113029
 H              3.07984    3.56965     4.3151          -0.0632705  0.0614072  0.0314038
 H              3.97136    3.03956    4.00823           0.0988538 -0.0657366    0.20042
 H             0.472043     4.1598    4.02883           -0.127034  -0.124436  0.0342169
 H              1.43769    5.03771    3.79236           -0.231034   0.115545   -0.10077
 H              2.21541    4.15477    4.00388           0.0133023  0.0213872   0.181094
 H              3.02474    5.00409    3.77385          -0.0396098  -0.141728  -0.146857
 H              3.92609    4.16519    4.03225           0.0797262 -0.0752899 -0.0495044
