125

 H             0.831159  -0.670516   0.561961           -0.184877  0.0807603 -0.0733685
 H              1.34017   0.300559   0.464804           -0.116811   -0.25088  0.0516564
 H              2.14514  -0.479047   0.473389           -0.180945   0.115025    0.14573
 H              3.08182   0.287442   0.449368            -0.185322    0.185944 -0.00141754
 H              3.61323   -0.66757   0.595241           0.0473795  -0.232354 0.00750516
 H             0.400238   0.829671   0.163696          -0.0537097 -0.0172465  0.0388098
 H              1.28631     1.4132   0.457489            0.372246  -0.114937 -0.0556867
 H              2.20615   0.868016   0.142423            0.155629  0.0329279   0.398854
 H              3.10653    1.40648   0.457324           0.0540778  -0.138689 -0.0241865
 H              4.00178    0.84044   0.176652            0.189943  0.0525005   0.207272
 H             0.369317    1.94712   0.142616           -0.109622  -0.042975   0.091215
 H              1.28451    2.50404   0.492236          -0.0106512   0.151708   0.167338
 H              2.18222    1.96901   0.142175          -0.0916992 -0.0413711 -0.0184114
 H              3.07529    2.50898   0.457382            0.195151   0.110268   0.252131
 H              3.99437    1.97977    0.12765            0.155068   0.240237  0.0810621
 H             0.381359    3.08667   0.196667             0.18723 -0.0867432  -0.120022
 H              1.28752    3.60225   0.513772           -0.033015  0.0299968   0.160068
 H              2.19255    3.05843   0.152981            0.0892659 0.000268561 -0.00689543
 H              3.10942    3.61807   0.525493           -0.088697  0.0388007 0.00820892
 H              4.00309    3.11818   0.182142            -0.21953  -0.191738  -0.109328
 H             0.429627    4.22434    0.19273            0.204263  -0.321017    0.17799
 H              1.33959    4.73125    0.54552            -0.127492  -0.0315683 -0.00395269
 H              2.19981    4.15485   0.179744           0.0753939  0.0636273 -0.0219249
 H              3.04802    4.73219     0.5249          0.00611027 -0.0981666  0.0573352
 H              3.98546    4.23844   0.220374            0.143417   0.195918    0.22336
 H             0.459739   0.231819    1.10851           -0.196154  -0.114386  0.0179712
 H              1.40777  -0.255405    1.40978           -0.149135 -0.0132287  0.0880359
 H              2.21432   0.360495    1.10874           -0.130422  0.0235195   0.112536
 H              3.03133   -0.27184    1.41449           0.0307622  -0.116574  -0.177865
 H              3.96949   0.248316    1.13461           -0.077589 -0.0280335   0.109265
 H             0.398636    1.39163    1.10494          0.00377529  0.0639041   0.040572
 H              1.30743   0.877711     1.4095           -0.177671    0.15358  0.0508532
 H               2.1985    1.42945    1.10323           -0.291712   0.063763   0.131933
 H              3.09669   0.854901    1.42075           0.0362308  0.0611712 -0.0653346
 H              3.99412    1.39513    1.10247            0.186815  -0.171759  0.0723027
 H              0.38524     2.4847    1.13691            0.139093   0.121085   0.250534
 H               1.2905    1.94856    1.44221          -0.0375341 -0.0897726   -0.15276
 H              2.18612    2.51381    1.11066           0.0162881  -0.327398     0.2475
 H              3.09015     1.9472    1.42515           0.0434948 -0.0308408  0.0109366
 H              3.98565    2.51443    1.09677             0.11647  0.0401944  0.0536599
 H             0.375392    3.60865    1.14718          -0.0358752  -0.219213 -0.0404436
 H              1.29384    3.03184    1.43117           -0.119606  -0.199852 -0.0162808
 H              2.18992     3.6147    1.12397           -0.0526191 0.000189616  -0.0712384
 H               3.0847    3.04733    1.44383           -0.109126 -0.0915781 -0.0643412
 H              4.00344    3.64078    1.15933            0.140033  -0.131294  0.0255982
 H             0.425482    4.74852    1.17866           -0.236919   0.116751  0.0415676
 H              1.30859     4.1244    1.47741          0.000191244   0.0180486  -0.0104095
 H              2.20107    4.72303    1.23298           0.0221573 -0.0330305  0.0712864
 H              3.09745    4.14203    1.46836           0.0693352  -0.288472   0.102467
 H              3.93537    4.77747    1.19427           -0.151211  0.0274146   0.156163
 H              0.48996  -0.344971    2.04662           -0.314664   0.326974  0.0449541
 H              1.31179    0.30788    2.33445          -0.0748881   0.106796  -0.317741
 H              2.20207  -0.305972    2.12276           -0.0856465 -0.00821253   -0.226568
 H              3.07524   0.301796    2.35393          -0.00737674    0.109965   -0.114111
 H              3.90558  -0.301371    2.08346           0.0183029  -0.102954   0.310273
 H             0.391237   0.825232    2.02965           0.0351933 -0.0286738  -0.400928
 H              1.29861    1.39708    2.36638             0.218399 -0.00910017    0.112843
 H               2.1965   0.845687    2.05449          -0.0602134   0.284222  -0.206396
 H              3.09421    1.39181    2.37326          -0.0536715   0.015276  -0.128625
 H              3.98573     0.8252    2.05914            -0.20469  -0.172722  0.0593324
 H             0.399652    1.93036    2.05659           0.0499231    0.23271  0.0186862
 H               1.3121    2.47705    2.37866          -0.0598307  -0.020975 -0.0334442
 H              2.19379    1.93555    2.06299          -0.0860478   0.218079 -0.0281491
 H              3.09846    2.48073    2.39289           0.0590847   0.111326  -0.145849
 H              3.99416    1.95499    2.06224           0.0327281  -0.122215  0.0852454
 H             0.395965    3.03501    2.09328             0.14718  -0.022799   0.154474
 H              1.30593    3.56203    2.39764           0.0731502  0.0362364 -0.0846357
 H              2.19973    3.02995    2.07337          -0.0224953 -0.0950023  -0.346624
 H              3.10498    3.57762    2.42418            0.145175   0.220498 -0.0543927
 H              4.01243    3.05693    2.09405          -0.0571498 -0.0911294  0.0571148
 H             0.421141    4.15843    2.10852          -0.0553772  0.0584555 -0.0293791
 H              1.34634    4.68403    2.41464           -0.107634   0.108983   0.270481
 H              2.21561    4.10981    2.11325           -0.041444  0.0285643 -0.0211704
 H              3.07014    4.70446    2.42952            0.132589 -0.0887625  -0.260495
 H              3.98435    4.17213    2.12353            0.136456  0.0825078   0.169365
 H             0.416016   0.273209    2.96883          -0.0454977   0.206376  -0.267262
 H              1.31052  -0.310551    3.23635          -0.0859283   0.105831  -0.183537
 H              2.19646     0.3072    3.01237          -0.0423922  0.0965958  -0.110427
 H              3.06354  -0.312923    3.24619          -0.0525466 -0.0304213   0.205642
 H              3.99747   0.277496    3.00682            0.298088  0.0986765  -0.199873
 H             0.419707    1.37711    2.98997          -0.0776949 -0.0813706  0.0967556
 H              1.31141   0.832268    3.31139           0.0830916 -0.0318126  -0.164884
 H              2.20161    1.38645    2.99725           0.0709087 -0.0509224  0.0156332
 H              3.08572    0.81925     3.3035           -0.195326    0.14582 -0.0842685
 H               3.9942    1.37598    3.01481           0.0153484  -0.033828  0.0411016
 H             0.418222    2.48651    3.02262          -0.0570839  -0.206102 -0.0545638
 H              1.31239    1.91093    3.35656           -0.0886267  -0.0281187 -0.00175297
 H              2.20039    2.47379    3.02943           0.0263948   0.110356  -0.189635
 H              3.10311    1.91915    3.33303           -0.143924 0.00579169  0.0202183
 H              4.02239    2.47873    3.03927           0.0758558  0.0855774 -0.0474133
 H             0.421488    3.58486    3.04598          -0.0350167  -0.148446 -0.0672677
 H              1.32668     2.9965    3.34262            0.119594 -0.0389694   0.179253
 H              2.20892    3.55134    3.04807             0.162892    0.116159 -0.00957509
 H              3.11455    3.00275    3.36902           -0.151153  0.0265531  0.0161017
 H              4.00885    3.58177    3.04563          0.00818813 -0.0411602  -0.103961
 H             0.487305     4.7165    3.07044           -0.205432   -0.32001 -0.0710797
 H              1.32523    4.08759    3.33655          -0.0274703  0.0183896   0.134459
 H              2.21717    4.65254    3.06112           -0.0122653 -0.00739409    0.129624
 H              3.08352     4.0788    3.35927            0.171005  -0.106885  -0.236308
 H              3.91858    4.73794     3.0737          -0.0930132 -0.0795873   -0.12009
 H             0.403421  -0.290818     3.9152            0.154829 -0.0377682   0.036432
 H              1.29963   0.248011    4.24095            0.259617  -0.146847  -0.147996
 H              2.17007  -0.301289    3.90363          -0.0383654  -0.194177 0.00478627
 H              3.05805   0.233843     4.2162            0.0657501 -0.00484424   -0.251368
 H              3.94399  -0.346638    3.92312            0.204848   0.211612   0.015921
 H              0.41425   0.828312    3.94799           0.0808423 -0.0432536  -0.209606
 H              1.32176    1.35819    4.29859           0.0681108   0.156613   0.213912
 H              2.18627   0.812328    3.94767           0.0996284  -0.066685  0.0422411
 H              3.07734    1.35389    4.29205           -0.120738  0.0753988  0.0550749
 H              3.95982   0.803015    3.97939            0.112912  0.0163106   0.152162
 H             0.408194    1.91967    3.94685           -0.116561 -0.0767001  0.0782375
 H              1.30853    2.45121    4.30358            0.132368  0.0308902  -0.037986
 H              2.21545    1.92127    3.95135           0.0242475  0.0561781  -0.165038
 H               3.1007    2.44908    4.31379            0.014299   0.298236  0.0330074
 H              4.00086    1.91681    3.98823          -0.00113255   0.0551851  -0.0170569
 H             0.432785    3.02846    3.98944          -0.0867367  -0.190549  -0.173396
 H              1.33963    3.56187    4.34653           0.0497134  -0.121397    0.10152
 H              2.20924    3.00775    3.99973          -0.0116188   0.200248  0.0251919
 H              3.08946     3.5568    4.34331           -0.066902   0.292645 -0.0452713
 H               4.0098    3.01911    4.01329           -0.126967  0.0228316   -0.17385
 H              0.48153    4.14715    4.02257            0.204088   0.017792  0.0367728
 H               1.4383    5.06333    3.74009           0.0105668  -0.103655   0.029373
 H              2.20279    4.16436    4.02761           0.0417154  0.0595797  0.0707143
 H              2.99534    5.06822    3.72969          -0.0589802  -0.115154  -0.213765
 H              3.93604     4.1975    4.02422           0.0575403  0.0538797   0.110983
