125

 H             0.762663  -0.654907   0.588931           -0.133376  0.0322927   0.124557
 H               1.2948   0.300973   0.470644           0.0649278  0.0685301  0.0543246
 H              2.02547  -0.548022   0.595779          0.00641991  0.0665764   0.259266
 H              3.08658   0.279277   0.467039          -0.00930873   0.0312228  -0.0501774
 H              3.66108  -0.673281   0.645556            0.035609  -0.227917  -0.168402
 H              0.40709   0.860144   0.127396           -0.208329   -0.10331 -0.0255696
 H              1.32783    1.41007   0.480154            0.133195  0.0571818 -0.0951016
 H               2.2027    0.85822   0.172956          -0.0480498  -0.248541  -0.145661
 H              3.10547    1.39612   0.486174           -0.144675 -0.0688768 -0.0140329
 H              3.99813     0.8517   0.165845            0.181293 -0.0156008  0.0441425
 H             0.421443    1.96851   0.115377           0.0621943  -0.119541 -0.0748662
 H              1.31039    2.51499   0.458027           0.0822226 0.00909503   0.413194
 H              2.22402     1.9602   0.146897            -0.15571   0.048059   0.086156
 H               3.1123    2.49521   0.493367          -0.0199378  -0.293745  -0.137372
 H              3.99435    1.97321    0.15505            0.124602 0.00845607   0.244663
 H             0.385485    3.07782   0.153326           0.0653129 -0.0183286  -0.264125
 H              1.29937    3.61089   0.490522           0.0196666 -0.0517209 -0.0733184
 H              2.22119    3.08551   0.164098           -0.118028  0.0558029 -0.0179405
 H              3.11438    3.64187    0.50251           -0.0841938   -0.043729 -0.00767593
 H              4.02884     3.1004   0.181375          -0.0902478 -0.0198137   0.166507
 H             0.373964    4.22336   0.206038            0.121855  0.0365163 -0.0553547
 H              1.27736    4.74173    0.52444          -0.0379816  0.0399014  0.0225823
 H               2.1864    4.17995   0.232733           0.0271438 -0.0706764  -0.285599
 H              3.08565    4.74212   0.514756          -0.0422842  0.0509532  0.0682512
 H              4.02056    4.21518   0.172176          -0.0943427  -0.138574  0.0231456
 H             0.410145   0.273909    1.09762           -0.318836  -0.203072 0.00694068
 H              1.32904  -0.259323    1.41928           -0.144843  0.0829992 0.00920799
 H              2.20567   0.334605    1.15904          0.00398845   0.140796  0.0863893
 H              3.04093  -0.278046     1.4268            -0.34161  -0.117641   0.187016
 H              3.99913   0.282663    1.08898           0.0148319   0.147218 -0.0561517
 H             0.408261    1.39938    1.08045            -0.192669  -0.0395501 -0.00648396
 H              1.30739   0.858091    1.42867           -0.103489  -0.101303  -0.126952
 H              2.21254    1.42736     1.1232          -0.0282236 -0.0847829 -0.0560548
 H              3.10007   0.853294    1.43279           -0.119852  0.0790212 -0.0388012
 H              4.01871    1.41434    1.11351            0.102343  0.0934318 -0.0303264
 H             0.403729    2.50102    1.11274           -0.210108 -0.0605233  0.0518355
 H              1.30381    1.95138    1.42984              0.1696  0.0280956  0.0537429
 H              2.19982    2.49907    1.11428            0.193906  -0.116951  -0.110911
 H              3.13032      1.962    1.43065          -0.0371359  0.0164236 -0.0672446
 H              4.02974    2.52167    1.11557            0.120333  0.0542668  -0.023223
 H              0.39699    3.60775    1.12533           0.0976918  0.0651567 -0.0590932
 H              1.29404    3.02815    1.42345           0.0205635 -0.0992745 -0.0632385
 H              2.19503    3.60191    1.15448          -0.00976107  0.00390721   -0.150942
 H              3.11058    3.04914    1.43084           -0.039895  0.0934771 -0.0979967
 H              4.01144    3.62779    1.14871          -0.00828379     0.18733   -0.254777
 H             0.426403     4.7304    1.20193           0.0881224   0.138794 -0.0142068
 H              1.29559     4.1426     1.4633          -0.0746629  -0.121221   0.195404
 H              2.20024    4.73956    1.18832            0.111494 -0.0585961 -0.0967477
 H              3.08186    4.14963    1.46385           0.0590359  0.0669838   0.007929
 H              3.98828     4.7303    1.18074            -0.0299148    0.0283585 -0.000534705
 H             0.409336  -0.243119     2.0594             0.0366401    -0.049186 -0.000368161
 H              1.30447    0.32721    2.35066          -0.0795273   0.136975   -0.14648
 H              2.19546   -0.29129    2.10518           -0.187909  0.0439426  -0.101476
 H              3.08441   0.279635     2.3659           -0.051304 -0.0196235  0.0889609
 H              3.96504  -0.288967    2.02459           -0.123452  -0.297515   0.142335
 H             0.393208   0.862132    2.05745           -0.203062 -0.0528326  -0.114532
 H              1.29911    1.39663    2.37389          -0.0634283  0.0519119  -0.252429
 H              2.20665   0.855621    2.08131          -0.0183455   0.181422  0.0533524
 H              3.10859    1.39595    2.37702           -0.089137 -0.0885426   0.107377
 H              4.00856   0.845492    2.04234           -0.134437 -0.0148938  0.0752818
 H             0.415281    1.93039    2.06622          -0.0150961  -0.229552 -0.0218738
 H              1.32627    2.46942    2.39181           -0.139271   0.217096  -0.112694
 H              2.21183    1.93493    2.06693           0.0688483  -0.068953 -0.0996784
 H              3.09981    2.48418    2.39629            0.105574  0.0908329  0.0823051
 H              4.00266    1.94496     2.0718            0.124953 -0.0392007  0.0377374
 H             0.413953     3.0435    2.06952            0.087267   0.135933 0.00626748
 H              1.30561    3.55594    2.38089          -0.0289687   0.123456  -0.086322
 H              2.19999     3.0272    2.06548          -0.0326181   0.101336  -0.251865
 H              3.09091    3.57077    2.38265           0.0370655    0.29186   0.106404
 H              4.00905    3.04584    2.07821           0.0131008  0.0692357   0.106982
 H             0.416903     4.1388    2.11019           0.0850129   -0.10752  0.0611708
 H               1.3218    4.68575     2.3885          -0.0712455 0.00109162 0.00385107
 H              2.19657     4.1234    2.10787           -0.199433   0.205832   0.372438
 H               3.0476    4.74952    2.36241            -0.10939   0.303522  0.0936798
 H              3.95565    4.16552    2.12272            0.143362  0.0147145 -0.0258504
 H             0.391908   0.289851    2.99622           -0.168611   0.297834   0.168165
 H              1.31419   -0.30561    3.23144            0.122252   0.160403   0.175168
 H               2.1889   0.297445    3.01335          -0.0187615    0.52316 -0.0596528
 H              3.09291   -0.31454    3.25393          -0.0616232 -0.0508824 -0.0312439
 H              4.01635   0.261858    2.96022          -0.0662053 -0.0105973  -0.013757
 H             0.395796    1.39337    3.02193           -0.070084  0.0609582   0.086026
 H              1.30104   0.839171    3.30916           0.0351211  -0.196483 -0.0132983
 H              2.20112    1.39332    3.01675          -0.0743866 -0.0182174   -0.13273
 H              3.10271   0.821207    3.31066            0.152723  0.0494162     0.1058
 H               4.0017    1.37691     3.0015           0.0616947  0.0482138   0.212852
 H             0.406844    2.49368    3.01682          -0.0357968    0.09482 -0.0394974
 H              1.30131    1.94219    3.33582          -0.0204085 -0.0628449  -0.203936
 H              2.21874    2.46592    3.01135            0.200414 -0.0665579   0.137796
 H              3.11844    1.91345    3.33753           -0.142731  0.0669113   0.112093
 H              4.01231    2.48569    3.03087              0.349661 -0.000959648     0.157992
 H              0.39199    3.60221    3.04182           0.0818585  0.0251248  -0.106774
 H              1.30342    3.02148    3.33535           -0.113255 -0.0694583  -0.106188
 H              2.19803    3.54612    3.03094          -0.0030679   0.135244 -0.0230702
 H              3.09305    2.99812    3.33657           0.0845867  -0.139957   0.237972
 H              3.99799    3.59836    3.05799           0.0119468    0.20197  0.0179837
 H             0.447325    4.73456    3.07463            0.178619  -0.106952   0.095947
 H              1.30922    4.09527    3.31546          -0.0652793  -0.230474     0.2135
 H               2.1908    4.67131    3.05719            0.225909  0.0349937   0.151936
 H              3.08163    4.08889    3.30766              -0.171   -0.02619  0.0126093
 H              3.87581    4.75639    3.06813           -0.300306   0.334385   0.091601
 H             0.434362  -0.349181    3.91545            0.190488 -0.0627754  -0.190361
 H              1.29868   0.245485    4.23318           0.0310619  -0.029159 -0.0118854
 H              2.20811   -0.31948    3.93181           0.0560968   0.227829  0.0545177
 H              3.08522   0.221499    4.24416            0.060146   0.223208 -0.0140819
 H              3.97268  -0.321089    3.89014           0.0754471  0.0261837   0.178684
 H             0.385751     0.7949    3.96983          -0.0634734  -0.054801  -0.151782
 H              1.28255    1.35634    4.27218           0.0968215 -0.0322797   -0.17154
 H              2.20019   0.802979    3.95293          -0.00122901   -0.028415   -0.128791
 H              3.10613    1.33261    4.27844            0.134683 0.00160075  0.0252808
 H              4.01075   0.801084    3.93645             0.250328 -0.00183834  -0.0316553
 H             0.396396    1.91604    3.96658           0.0314638   -0.04645 -0.0216284
 H              1.30964    2.46788    4.28533            0.156434  -0.167265  -0.119633
 H              2.20738    1.90418    3.96903          -0.0288944  -0.187959 0.00748668
 H               3.1075     2.4444    4.30303           0.0957582  0.0186572  0.0568071
 H              3.99844    1.91809     3.9749            0.197948 0.00542293 -0.0103188
 H             0.434297     3.0331    4.00453            0.110425  -0.242664 -0.0909684
 H              1.33824    3.57989    4.28042            0.120673  -0.418562   -0.20198
 H              2.20577    3.00536    3.97888          -0.00743965   -0.171784 -0.00976784
 H              3.08725    3.55918    4.27718            0.104947  -0.172663 0.00981133
 H              3.99446    3.03289    3.98122           0.0630744  -0.196262 0.00244677
 H             0.462534    4.17309    4.02247          -0.00847482  -0.0705784   0.0771262
 H              1.39321    4.94041    3.94129            0.328326  -0.119452    -0.1127
 H              2.21316    4.12055    3.98057           -0.167282  -0.102449 -0.0458795
 H              2.96533    4.93551    3.95587           -0.118182  0.0245312  0.0568263
 H              3.93244    4.16838    4.01609           -0.118219   0.215166  0.0357438
