125

 H           -0.0136134 -0.0136134 -0.0136134           -0.178594  -0.178594  -0.178594
 H              1.08771  0.0549159  0.0549159           -0.129412  -0.125187  -0.125187
 H                  2.2  0.0477377  0.0477377          2.29179e-15   -0.178127   -0.178127
 H              3.31229  0.0549159  0.0549159            0.129412  -0.125187  -0.125187
 H              4.41361 -0.0136134 -0.0136134            0.178594  -0.178594  -0.178594
 H            0.0549159    1.08771  0.0549159           -0.125187  -0.129412  -0.125187
 H              1.12711    1.12711  0.0995838            0.021427   0.021427  -0.209035
 H                  2.2    1.12224  0.0882915          -2.2163e-15  -0.0133456   -0.292428
 H              3.27289    1.12711  0.0995838           -0.021427   0.021427  -0.209035
 H              4.34508    1.08771  0.0549159            0.125187  -0.129412  -0.125187
 H            0.0477377        2.2  0.0477377            -0.178127 2.13534e-15   -0.178127
 H              1.12224        2.2  0.0882915            -0.0133456 -2.52617e-15    -0.292428
 H                  2.2        2.2  0.0791844          -1.29133e-14 -9.47193e-15    -0.357503
 H              3.27776        2.2  0.0882915             0.0133456 -3.25279e-15    -0.292428
 H              4.35226        2.2  0.0477377             0.178127 2.01305e-15   -0.178127
 H            0.0549159    3.31229  0.0549159           -0.125187   0.129412  -0.125187
 H              1.12711    3.27289  0.0995838            0.021427  -0.021427  -0.209035
 H                  2.2    3.27776  0.0882915          -3.73634e-15    0.0133456    -0.292428
 H              3.27289    3.27289  0.0995838           -0.021427  -0.021427  -0.209035
 H              4.34508    3.31229  0.0549159            0.125187   0.129412  -0.125187
 H           -0.0136134    4.41361 -0.0136134           -0.178594   0.178594  -0.178594
 H              1.08771    4.34508  0.0549159           -0.129412   0.125187  -0.125187
 H                  2.2    4.35226  0.0477377          1.85108e-15    0.178127   -0.178127
 H              3.31229    4.34508  0.0549159            0.129412   0.125187  -0.125187
 H              4.41361    4.41361 -0.0136134            0.178594   0.178594  -0.178594
 H            0.0549159  0.0549159    1.08771           -0.125187  -0.125187  -0.129412
 H              1.12711  0.0995838    1.12711            0.021427  -0.209035   0.021427
 H                  2.2  0.0882915    1.12224          -9.07138e-15    -0.292428   -0.0133456
 H              3.27289  0.0995838    1.12711           -0.021427  -0.209035   0.021427
 H              4.34508  0.0549159    1.08771            0.125187  -0.125187  -0.129412
 H            0.0995838    1.12711    1.12711           -0.209035   0.021427   0.021427
 H              1.16298    1.16298    1.16298          -0.0693387 -0.0693387 -0.0693387
 H                  2.2    1.15638    1.15638          -2.20259e-14   -0.0973133   -0.0973133
 H              3.23702    1.16298    1.16298           0.0693387 -0.0693387 -0.0693387
 H              4.30042    1.12711    1.12711            0.209035   0.021427   0.021427
 H            0.0882915        2.2    1.12224             -0.292428 -2.27698e-16   -0.0133456
 H              1.15638        2.2    1.15638            -0.0973133 -2.65212e-14   -0.0973133
 H                  2.2        2.2    1.15109           -6.3741e-15 -9.12941e-15    -0.115782
 H              3.24362        2.2    1.15638             0.0973133 -1.27525e-14   -0.0973133
 H              4.31171        2.2    1.12224              0.292428 -6.27713e-15   -0.0133456
 H            0.0995838    3.27289    1.12711           -0.209035  -0.021427   0.021427
 H              1.16298    3.23702    1.16298          -0.0693387  0.0693387 -0.0693387
 H                  2.2    3.24362    1.15638          -1.9641e-14   0.0973133  -0.0973133
 H              3.23702    3.23702    1.16298           0.0693387  0.0693387 -0.0693387
 H              4.30042    3.27289    1.12711            0.209035  -0.021427   0.021427
 H            0.0549159    4.34508    1.08771           -0.125187   0.125187  -0.129412
 H              1.12711    4.30042    1.12711            0.021427   0.209035   0.021427
 H                  2.2    4.31171    1.12224          -6.65569e-15     0.292428   -0.0133456
 H              3.27289    4.30042    1.12711           -0.021427   0.209035   0.021427
 H              4.34508    4.34508    1.08771            0.125187   0.125187  -0.129412
 H            0.0477377  0.0477377        2.2            -0.178127   -0.178127 6.07922e-15
 H              1.12224  0.0882915        2.2            -0.0133456    -0.292428 -8.97124e-15
 H                  2.2  0.0791844        2.2          -1.04857e-14    -0.357503 -9.07682e-15
 H              3.27776  0.0882915        2.2             0.0133456    -0.292428 -1.05393e-14
 H              4.35226  0.0477377        2.2             0.178127   -0.178127 -8.2556e-15
 H            0.0882915    1.12224        2.2             -0.292428   -0.0133456 -6.90555e-16
 H              1.15638    1.15638        2.2            -0.0973133   -0.0973133 -2.82103e-15
 H                  2.2    1.15109        2.2          -4.02911e-15    -0.115782 -1.31969e-14
 H              3.24362    1.15638        2.2            0.0973133  -0.0973133 -5.7202e-15
 H              4.31171    1.12224        2.2             0.292428  -0.0133456 -1.2052e-14
 H            0.0791844        2.2        2.2             -0.357503  -8.3749e-15 -1.13699e-14
 H              1.15109        2.2        2.2             -0.115782 -9.13042e-15 -1.45665e-14
 H                  2.2        2.2        2.2          -2.43855e-15 -7.35217e-15  7.22403e-15
 H              3.24891        2.2        2.2              0.115782 -1.10652e-14 -4.18311e-15
 H              4.32082        2.2        2.2              0.357503 -1.08174e-14 -9.57462e-15
 H            0.0882915    3.27776        2.2             -0.292428    0.0133456 -1.01584e-14
 H              1.15638    3.24362        2.2            -0.0973133    0.0973133 -6.67758e-15
 H                  2.2    3.24891        2.2          -6.86035e-15     0.115782  -2.0275e-14
 H              3.24362    3.24362        2.2             0.0973133    0.0973133 -2.49127e-14
 H              4.31171    3.27776        2.2              0.292428    0.0133456 -1.19049e-14
 H            0.0477377    4.35226        2.2             -0.178127     0.178127 -5.35705e-15
 H              1.12224    4.31171        2.2            -0.0133456     0.292428 -1.18224e-14
 H                  2.2    4.32082        2.2           -1.1289e-14     0.357503 -9.83288e-15
 H              3.27776    4.31171        2.2            0.0133456    0.292428 -1.1781e-14
 H              4.35226    4.35226        2.2              0.178127     0.178127 -6.74234e-15
 H            0.0549159  0.0549159    3.31229           -0.125187  -0.125187   0.129412
 H              1.12711  0.0995838    3.27289            0.021427  -0.209035  -0.021427
 H                  2.2  0.0882915    3.27776          -6.88274e-15    -0.292428    0.0133456
 H              3.27289  0.0995838    3.27289           -0.021427  -0.209035  -0.021427
 H              4.34508  0.0549159    3.31229            0.125187  -0.125187   0.129412
 H            0.0995838    1.12711    3.27289           -0.209035   0.021427  -0.021427
 H              1.16298    1.16298    3.23702          -0.0693387 -0.0693387  0.0693387
 H                  2.2    1.15638    3.24362          -1.84418e-14   -0.0973133    0.0973133
 H              3.23702    1.16298    3.23702           0.0693387 -0.0693387  0.0693387
 H              4.30042    1.12711    3.27289            0.209035   0.021427  -0.021427
 H            0.0882915        2.2    3.27776            -0.292428 -8.8171e-15   0.0133456
 H              1.15638        2.2    3.24362            -0.0973133 -1.44168e-14    0.0973133
 H                  2.2        2.2    3.24891          -1.1179e-14 1.92995e-14    0.115782
 H              3.24362        2.2    3.24362             0.0973133 -7.00975e-15    0.0973133
 H              4.31171        2.2    3.27776              0.292428 -6.19127e-15    0.0133456
 H            0.0995838    3.27289    3.27289           -0.209035  -0.021427  -0.021427
 H              1.16298    3.23702    3.23702          -0.0693387  0.0693387  0.0693387
 H                  2.2    3.24362    3.24362          -4.89207e-15    0.0973133    0.0973133
 H              3.23702    3.23702    3.23702           0.0693387  0.0693387  0.0693387
 H              4.30042    3.27289    3.27289            0.209035  -0.021427  -0.021427
 H            0.0549159    4.34508    3.31229           -0.125187   0.125187   0.129412
 H              1.12711    4.30042    3.27289            0.021427   0.209035  -0.021427
 H                  2.2    4.31171    3.27776          -7.3842e-15    0.292428   0.0133456
 H              3.27289    4.30042    3.27289           -0.021427   0.209035  -0.021427
 H              4.34508    4.34508    3.31229            0.125187   0.125187   0.129412
 H           -0.0136134 -0.0136134    4.41361           -0.178594  -0.178594   0.178594
 H              1.08771  0.0549159    4.34508           -0.129412  -0.125187   0.125187
 H                  2.2  0.0477377    4.35226          1.64087e-15   -0.178127    0.178127
 H              3.31229  0.0549159    4.34508            0.129412  -0.125187   0.125187
 H              4.41361 -0.0136134    4.41361            0.178594  -0.178594   0.178594
 H            0.0549159    1.08771    4.34508           -0.125187  -0.129412   0.125187
 H              1.12711    1.12711    4.30042            0.021427   0.021427   0.209035
 H                  2.2    1.12224    4.31171          8.41664e-17  -0.0133456    0.292428
 H              3.27289    1.12711    4.30042           -0.021427   0.021427   0.209035
 H              4.34508    1.08771    4.34508            0.125187  -0.129412   0.125187
 H            0.0477377        2.2    4.35226            -0.178127 5.74417e-15    0.178127
 H              1.12224        2.2    4.31171            -0.0133456 -7.83937e-16     0.292428
 H                  2.2        2.2    4.32082          -9.51319e-15  -9.8689e-15     0.357503
 H              3.27776        2.2    4.31171             0.0133456 -2.83002e-15     0.292428
 H              4.35226        2.2    4.35226             0.178127 7.85976e-15    0.178127
 H            0.0549159    3.31229    4.34508           -0.125187   0.129412   0.125187
 H              1.12711    3.27289    4.30042            0.021427  -0.021427   0.209035
 H                  2.2    3.27776    4.31171          6.95068e-16   0.0133456    0.292428
 H              3.27289    3.27289    4.30042           -0.021427  -0.021427   0.209035
 H              4.34508    3.31229    4.34508            0.125187   0.129412   0.125187
 H           -0.0136134    4.41361    4.41361           -0.178594   0.178594   0.178594
 H              1.08771    4.34508    4.34508           -0.129412   0.125187   0.125187
 H                  2.2    4.35226    4.35226          7.84669e-15    0.178127    0.178127
 H              3.31229    4.34508    4.34508            0.129412   0.125187   0.125187
 H              4.41361    4.41361    4.41361            0.178594   0.178594   0.178594
