125

 H             0.861673  -0.650474   0.590415          -0.0253905   0.129074   0.301918
 H              1.32768   0.314083   0.467193          -0.0598257 0.00679972  -0.011556
 H              2.10765  -0.515325   0.537799          -0.0681258   0.024914   0.109282
 H              3.05803   0.297793    0.44036           -0.115009   0.103944  0.0953071
 H              3.71626   -0.58805   0.558337          0.00172545 -0.0984423   0.118998
 H             0.394092   0.829293   0.133613            0.197027   0.185634  0.0710104
 H              1.29392    1.40351   0.440252           -0.140216  -0.125631   0.288061
 H              2.19415   0.879112   0.130945           -0.186893   0.210899    0.12296
 H              3.09193     1.3917   0.447609          -0.00661681   -0.139718 -0.00929082
 H              4.00393   0.795912   0.156154           0.0547183  -0.113924   0.120195
 H              0.35842    1.94323   0.162859           -0.229591 -0.0372476   0.107848
 H              1.28568    2.48561   0.495825           0.0825178  0.0164718 -0.0949637
 H              2.21121     1.9637   0.150334           -0.121601 -0.0990038 -0.0398587
 H              3.10623    2.50563   0.476626          -0.0709146   0.156401  0.0153249
 H              4.01106     1.9357   0.155135            0.148308   -0.16562  -0.136219
 H             0.421471     3.0561   0.179366           0.0394074  0.0886063  0.0318667
 H              1.29528    3.60619   0.507894          -0.0561394   0.138573  0.0402794
 H              2.20606    3.05571   0.150146          -0.0721722   0.193122 -0.0301636
 H              3.09128    3.60884   0.507786           0.0492228  -0.161822 0.00938185
 H              4.00309    3.05463    0.15122           0.0715179    0.16943 -0.0407819
 H             0.382546    4.18826   0.215182             0.196409 -0.00343517   -0.244398
 H              1.31159    4.69374   0.515141            0.310083  0.0111882 -0.0350143
 H              2.20451    4.16918   0.189762           -0.0015016   0.0519791 -0.00322958
 H              3.09154      4.733   0.556665           0.0973712  0.0179992  0.0110251
 H              3.98972    4.18319   0.192418            0.258286   0.232168   0.171055
 H             0.425734   0.266233    1.09377          -0.0371274  -0.139177  -0.178965
 H              1.38037   -0.25238     1.4104           0.0775447  0.0261328  -0.235892
 H              2.21552   0.356019     1.1172            0.121258 -0.0285913  0.0971685
 H              3.06102  -0.268082    1.37812           -0.107637  0.0800029 -0.0827701
 H              3.97393    0.29792    1.12123           0.00200256 -0.00021129  0.00382257
 H             0.423681    1.41086     1.1096            0.210715 0.00705518  -0.231902
 H              1.31696   0.863176    1.41348            0.124805   0.146145  0.0823215
 H              2.20094    1.42498     1.0843           -0.112571  -0.180063  0.0626244
 H              3.10693   0.866525    1.41069           -0.232586  -0.053428  -0.101338
 H              4.00054    1.40958    1.09602           -0.113254  -0.116665  0.0311344
 H              0.37868    2.52676    1.11779            0.0909316   0.0560193 -0.00588971
 H              1.30578    1.94121    1.42837           0.0847935 -0.0573996  -0.111943
 H              2.20425    2.51538    1.11901            0.056797    0.19144  0.0698846
 H              3.08913    1.94785     1.4209           -0.146309  -0.134223 -0.0645011
 H              3.99102    2.50973    1.12236           -0.231852   0.107477   0.035535
 H             0.399313    3.61831    1.15381           0.0359233    0.11748  0.0780101
 H              1.29095    3.03595    1.42929           -0.297087   0.152094  0.0509999
 H              2.20833    3.58731    1.13922           -0.120629    0.13868   0.119129
 H              3.10612     3.0383    1.44222          -0.0577458 -0.0305754  0.0320318
 H              4.01457    3.60947    1.14677          -0.00890531  -0.0600482   0.0651438
 H              0.46216    4.76251    1.21575           -0.153624  0.0379127  -0.170418
 H              1.30585    4.14344    1.46255           -0.158182 -0.0676657  0.0224953
 H              2.17601    4.69981    1.18429           -0.109503   0.048402 -0.0497321
 H              3.09429     4.1179    1.48416          0.00708402   0.100524 -0.0247578
 H              3.97816    4.72641     1.1811           -0.181275 -0.0201467 0.00540773
 H              0.48648  -0.305633    2.04189            0.213472   0.197645  0.0269015
 H              1.30454   0.304873    2.34949           0.0688983  0.0533403  0.0896096
 H              2.22023  -0.276513    2.08906            0.222879  -0.186328 -0.0988008
 H              3.10769   0.300907    2.34015          -0.0244873   0.131379 -0.0612421
 H              3.95435  -0.277072    2.03481          -0.0633542  0.0743953   0.131851
 H             0.420778   0.833764    2.03878          -0.0663376  0.0420507 -0.0233483
 H              1.28786    1.39574    2.37327          -0.0112238   0.241934 0.00077638
 H              2.18691   0.863019    2.04941          -0.0318356  0.0776656  -0.174039
 H              3.07042    1.39552    2.36689            0.164588 -0.0462764   -0.11487
 H              4.00146    0.86355    2.06657          -0.0790151   0.037603  -0.188379
 H              0.39907    1.94493    2.07774           0.0703701    -0.1199  0.0566496
 H              1.30197    2.48878    2.38754           -0.012489  0.0163426   0.196928
 H               2.2025    1.93981    2.05449           0.0198266  0.0368078   0.118171
 H              3.08297    2.48949    2.37711          -0.0184602 -0.0415137  -0.109964
 H              3.95722    1.95862    2.07602          0.00827045  -0.184063 -0.0874317
 H             0.380198    3.05064    2.09232            0.228876   0.111135   -0.17091
 H              1.29763    3.57309    2.39012           0.0679809 -0.0518469   0.163479
 H              2.18998    3.03419    2.07582            0.196485  -0.174779 -0.0646913
 H               3.0959    3.56271    2.40901           -0.128972   0.109242  -0.140467
 H              4.00126    3.03809    2.08661           -0.145535   0.196866   -0.28671
 H             0.413166    4.15941    2.12209          -0.0819512  -0.140436 -0.0220606
 H              1.34203    4.72586    2.38148           0.0582336   0.157867 -0.0664226
 H              2.21223     4.1198    2.12115           0.0431766  -0.178769  -0.201462
 H              3.09531    4.71245    2.40085            0.127493   0.109101  0.0515334
 H              3.98814    4.14096    2.12485          -0.0570683  -0.200048   0.142851
 H             0.396923   0.288827    2.99475             0.13083 0.00605722 -0.0387621
 H              1.30909  -0.310926      3.254           -0.123521  -0.251976   0.246324
 H              2.19295    0.28807    3.00202            0.183258 -0.0950643    0.41559
 H              3.09433  -0.322578     3.2518           -0.175393  -0.305004   0.153249
 H              4.00505   0.268437    2.98882           0.0975851  -0.012506  0.0728875
 H             0.390606    1.37775    3.01226           0.0793006  -0.169884 0.00441583
 H              1.29696   0.833303    3.31693          0.00808813  0.0165148   0.106846
 H              2.19296    1.37786    3.01345          -0.0151577  -0.131858  -0.201723
 H              3.10036   0.817971    3.30733           0.0714778 -0.0595034  0.0214272
 H              3.99802    1.38046    3.01445           0.0457904   0.252836  0.0499203
 H             0.411758    2.48371    3.04355           0.0999633  -0.200186 0.00179372
 H              1.29557    1.92408    3.34701            0.170239  -0.128728   0.272509
 H              2.19679    2.46229    3.02499            0.136968  0.0430062   0.116453
 H              3.09529    1.92157    3.32552          -0.0508751 -0.0351101  0.0472277
 H              4.00201    2.47562    3.02314          -0.0674114   0.167663  0.0903596
 H             0.401838    3.58414    3.05607            0.284575 -0.0972433 -0.0685471
 H              1.30279    3.01572    3.35314            0.023767 -0.0568897 -0.0460942
 H              2.19765    3.55865    3.02752           0.0238529 -0.0918756  0.0352358
 H              3.10013    3.00615     3.3466           -0.176298  -0.135774   0.166253
 H              4.00533    3.58724    3.04057            0.255754  -0.122536 -0.0255578
 H             0.492158    4.71975    3.04635           -0.142474  0.0043687   0.089974
 H              1.33328    4.09214    3.31855          -0.0544898  0.0189843  0.0463629
 H              2.20273    4.70646    3.07705          -0.0550207 -0.0520847 -0.0361263
 H              3.08001    4.08158    3.31392           -0.110924   0.224281   0.134002
 H              3.93854    4.72169    3.08619           -0.278824 -0.0770508  0.0170441
 H             0.407233   -0.30232    3.89645            0.192052  0.0718618 -0.0265041
 H               1.2865   0.256512    4.26503          -0.0805182  0.0816199  -0.275198
 H              2.17753  -0.287889    3.93143             0.135168 -0.00284028   0.0732045
 H              3.09838   0.254065    4.23039          -0.0582711  -0.169922  0.0976465
 H              3.95562  -0.325117    3.92292          -0.0594257  0.0952179  -0.270051
 H             0.365994   0.816199    3.97136          -0.0954364  -0.160629 -0.0908771
 H              1.29512    1.36165    4.27916             0.13162 -0.0583231  -0.247313
 H               2.1988   0.818743    3.94456           -0.350169 -0.0701495   0.143008
 H              3.07774    1.35955    4.28398           -0.160617  0.0106226  0.0359838
 H              4.00917   0.826885    3.95913           -0.133426 -0.0275881  0.0210387
 H             0.401974    1.93055    3.99775             0.21886   0.143049   0.207136
 H              1.30778     2.4779     4.3556          -0.0551464 -0.0718403   0.110441
 H              2.18814    1.93122    3.95498          -0.0667616  0.0182717  0.0264177
 H              3.08477     2.4494    4.28684           0.0445103 -0.0935472  -0.157256
 H              4.00852    1.92452    3.98818           0.0958985   0.121959  -0.283927
 H             0.419155    3.03849    3.99642          -0.0180036   0.220956 -0.0860514
 H              1.33642    3.56788    4.30661            0.087382 -0.0829646   -0.33308
 H              2.19007    3.03355    3.96915           0.0695832 -0.0193288 -0.0152011
 H              3.05579    3.56878     4.3119           -0.189224    0.16884  -0.113579
 H              3.97417     3.0377    3.99126           0.0257007 -0.0771779  0.0832571
 H             0.477428    4.14375    4.01527           -0.134083 -0.0555708  0.0372761
 H              1.43622    4.99013    3.87656           0.0496273   0.135681  -0.118779
 H              2.18862    4.16947    4.00433          -0.0550715  -0.224821 -0.0686087
 H              2.98446    4.92361    3.93979          -0.0217254  -0.223593 -0.0382333
 H              3.91175     4.1624    4.01603            0.200431   0.176838 -0.0164056
