125

 H             0.808287  -0.647431   0.528721           0.0189089   0.151574   0.129188
 H              1.34784   0.311472   0.437665          -0.0528835  0.0176257  -0.155793
 H              2.11389  -0.535956   0.547949          -0.0316318 -0.0330303  0.0635425
 H              3.04498   0.295828   0.457639            0.067111  -0.118247  0.0285701
 H               3.5999  -0.659466   0.584746           -0.120922  -0.030135  -0.222441
 H             0.455913   0.854087    0.10365           -0.238475 -0.0485481  -0.187411
 H              1.32066    1.42046   0.476695            0.124033  0.0458478  -0.217242
 H               2.1956   0.875243   0.111073          -0.0509512 0.00579417   0.269314
 H              3.09394    1.41115    0.47591             0.19798  -0.124966   0.198841
 H               3.9868   0.830301   0.184339           0.0240321  -0.113803  -0.153457
 H             0.412781    1.93679   0.165301           -0.116584   0.122779  -0.202199
 H               1.2971    2.51029   0.508019            0.367086   0.329473 -0.0956501
 H               2.1946    1.98904   0.161365            -0.19639 0.00976783  -0.246205
 H              3.09261    2.50913   0.490562           -0.182664  -0.164892     0.1779
 H               3.9936    1.95366   0.154726           0.0158669 -0.0292945   0.388041
 H             0.420128    3.04311   0.149936            0.122793  -0.238543  -0.282213
 H              1.29564    3.59756   0.512615           0.0783062   0.152119   -0.23933
 H              2.19822    3.07071   0.156054           -0.101384 -0.0559348   0.089911
 H              3.08307    3.61009   0.499224            0.253225  0.0417848 -0.0225289
 H              3.97231     3.0837   0.164852           0.0414637  -0.377552 -0.0387658
 H             0.382815    4.16363   0.201034          -0.0900038 0.00732175     0.2174
 H              1.27907    4.71133    0.52477            0.121865 -0.0972573    -0.1011
 H               2.1902    4.19379   0.237599          -0.0295843   0.244152  0.0557314
 H              3.07556    4.73978   0.539545          -0.0550541  -0.144851 -0.0889169
 H              4.02154    4.20217   0.229457            0.173754 -0.0498417  -0.138503
 H             0.438257   0.288861    1.07135            0.170113  0.0437416  -0.134979
 H              1.35249  -0.249481    1.37894          -0.0884664 -0.0927928   0.155241
 H              2.19498   0.358044    1.10262          -0.00327049   0.0284134   0.0426021
 H              3.01903   -0.26064     1.3998          0.00845165  0.0487978 -0.0501642
 H              3.95785   0.256145     1.1079           0.0616977  0.0883156 0.00826692
 H             0.399629    1.39401    1.09893           -0.274917  -0.016096   0.258899
 H              1.32036   0.874352    1.41197           0.0648259  0.0758969   0.153639
 H              2.20176     1.4168    1.11373           -0.171543   0.172789  0.0479195
 H              3.09828   0.856493    1.41921           -0.122413   0.174077 -0.0453424
 H              4.01382    1.39813    1.11099           -0.123442   0.105973  -0.068885
 H             0.383914    2.49058    1.12489            0.291148  0.0767162  -0.117757
 H              1.30573    1.94597    1.44867            0.142161   0.099089  -0.183459
 H              2.20438    2.50018    1.13222            0.283063 -0.0622905  -0.293238
 H              3.10553    1.95219    1.42464           -0.123543 -0.0918783  -0.139614
 H              3.98381    2.51584    1.09476           0.0437369 -0.0389432  0.0149655
 H             0.417473    3.58742     1.1441            -0.349916   -0.010497 -0.00619038
 H              1.29584    3.03021    1.45293           -0.044675   0.117649 -0.0248816
 H              2.19516    3.58567    1.13774          -0.0820747 -0.0189043   0.102614
 H              3.09283    3.03545    1.47093           0.0127251 -0.0121061 -0.0569179
 H              3.99154    3.62595    1.14892           -0.219062  0.0613581   0.447662
 H             0.409904    4.70691    1.17857           0.0235467  -0.148344 -0.0255916
 H              1.32524    4.11767    1.48417            0.244313 -0.0353887   0.207611
 H              2.20081    4.70966    1.20654            0.140003 -0.0919176 -0.0682548
 H              3.07696    4.11682    1.47272          -0.0631188  -0.222678   0.118071
 H              3.92581     4.7735     1.2231          -0.0664301   0.129843  0.0090709
 H             0.429423  -0.288067    2.03366          -0.0817581  0.0144504  0.0960571
 H               1.3047   0.299655    2.33704              0.15297   -0.114009 -0.00042517
 H              2.19828  -0.247767    2.08053           -0.120252  -0.222832 -0.0201583
 H              3.08425   0.307149     2.3508            0.265924  -0.232719  0.0783868
 H              3.90438  -0.326988    2.02147          -0.0645179  0.0189803  0.0649555
 H             0.396542   0.832337    2.03908            0.228775  -0.111566  -0.307427
 H              1.30434    1.37635    2.36486          -0.0780447    -0.3366 -0.0600706
 H               2.1925   0.866579    2.06106           0.0807879  0.0118034   0.308002
 H              3.11094    1.40334    2.36515          -0.00929075    0.169275   -0.146242
 H              3.99168   0.829086    2.04154           -0.030936  0.0801235   0.115753
 H             0.407486    1.93205    2.06631          -0.0191893   0.107077 -0.0417235
 H              1.31116    2.47089    2.39043           -0.122616  -0.153682 -0.0989249
 H              2.20751    1.94402    2.06613           -0.202372   0.136713   0.137818
 H              3.09848    2.48932    2.40021          -0.0133176 0.00535993  -0.102764
 H              4.02639      1.948    2.05788          -0.0880583  0.0130496  -0.176447
 H             0.390631    3.03228    2.09042           0.0057862  0.0694062  -0.209094
 H              1.30581    3.55809    2.39544          -0.0676346  -0.224702 -0.0130684
 H              2.20312    3.03647    2.09187          0.00537978 -0.0513386  -0.154494
 H              3.10784    3.55835    2.41917          -0.0397996  0.0049734  0.0347964
 H              4.01828     3.0323    2.08182            0.158539   0.262171   0.044762
 H             0.428199    4.12281    2.10784           -0.066782   0.143203   0.273079
 H              1.33265    4.71611    2.40368            0.247035 -0.0830937   0.210336
 H              2.20364    4.10977    2.12337            0.060949  0.0542248   0.101243
 H              3.09096    4.68433    2.40237          -0.0824445  0.0179291  0.0765342
 H              3.99333    4.14829    2.13224           0.0394994 0.00877329  -0.121598
 H             0.396628   0.280684    2.99364            0.226226  0.0392701 -0.0724686
 H              1.30925   -0.29465    3.25365          -0.0763829    0.23861 0.00967845
 H              2.20163   0.309835    3.01497            0.128071  -0.194844  -0.220117
 H              3.08837  -0.296231    3.25579            0.064332 -0.0647769   0.067235
 H              3.99771   0.263145    2.97365            0.038483  0.0795117  0.0714905
 H             0.416643    1.38149    3.00632           -0.215282   0.187233 -0.0521094
 H              1.30524    0.83214    3.30867           0.0784363   0.168033  -0.040073
 H              2.20594    1.38363    3.00428          -0.0205937  0.0823669 -0.0391779
 H              3.09877   0.827566    3.30546           0.0124522 -0.0664469     0.3344
 H              3.99497    1.37592    2.99668            -0.14439  0.0273359  -0.068354
 H             0.390172    2.47837    3.02166          -0.0379566  -0.147058   0.116325
 H              1.30249    1.92928     3.3188          -0.0155341 -0.0203668 -0.0336941
 H              2.22023    2.46883    3.01749          -0.0854995  -0.116356   0.200952
 H              3.10798    1.91826    3.34105           -0.113296  -0.160906  -0.127348
 H              4.00157     2.4711    3.03661            0.175472   0.077621  0.0437269
 H              0.39114     3.5969    3.04718          -0.0764997  0.0462429   0.247685
 H              1.32688    3.00464    3.33126          -0.0593711  -0.156413  0.0457162
 H              2.21562    3.55811    3.04004          -0.0398691 -0.0387971 -0.0937805
 H              3.09575    2.99653    3.38275           0.0165158  0.0696883 -0.0920507
 H              4.03122    3.59733    3.06291           -0.143111  -0.115826  0.0341904
 H             0.459698    4.71611    3.05713            0.190616 -0.0916191   0.179492
 H              1.32272    4.08552      3.324          -0.0463817   0.131491   0.362893
 H              2.19267    4.68902    3.04914          -0.0815159   0.246112 -0.0489603
 H              3.08905    4.08049    3.33447           0.0310182  0.0689981  -0.342768
 H              3.92984    4.74239    3.09277          -0.00314575  -0.0253752  -0.0885799
 H             0.420127  -0.282014    3.92507            0.062414 -0.0625151   0.104609
 H              1.31008    0.26177     4.2487          -0.0166579   0.288595  0.0868159
 H              2.21043  -0.272834    3.92658          -0.00618867  -0.0897039   -0.057805
 H              3.10515   0.257591    4.23362          -0.0999587  -0.148107  -0.107911
 H              3.98895  -0.292586    3.92439           0.0312904   0.115596  -0.138112
 H             0.386123   0.834672    3.94807          0.00244317  -0.064478   0.202111
 H              1.29731    1.36478    4.26965          -0.0695803  0.0848781   0.101743
 H              2.20336   0.836301    3.97043           0.0869034  0.0112476   0.232018
 H              3.09738    1.35981    4.29485           -0.144476  0.0537294 -0.0425947
 H               3.9969   0.822112    3.93348           0.0996004    0.19246 -0.0619275
 H             0.392212    1.92269    3.97147           0.0613163    0.16505 -0.0856862
 H              1.30661    2.47232    4.31941            0.228927   0.161932   0.112013
 H              2.20915     1.9248    3.97237            0.128004   0.140689   -0.10672
 H              3.10743    2.45748    4.32899            0.324211  0.0213107 -0.0897901
 H              4.02509    1.89866    4.00396            0.114413   -0.20597  -0.129979
 H             0.427672    3.04562    3.98367          0.00087382  -0.212403  -0.221181
 H              1.33541    3.57955    4.30686            -0.152941  -0.0220058 -0.00501526
 H              2.18947    3.00848     3.9896           0.0608434 -0.0298953  -0.124807
 H              3.07549    3.56658    4.33613           0.0226936 -0.0145584  0.0511205
 H              3.97891    3.02102    4.01064           -0.212803  0.0667256 -0.0359031
 H             0.461459    4.16363    3.99441          -0.0349233 -0.0137315  0.0896456
 H              1.44948    5.00358    3.82673           -0.143281  -0.134861  -0.137227
 H              2.21847    4.14911    3.98035           -0.154249   0.105975     0.1439
 H              2.96267    5.00797    3.80524           -0.107606 -0.0837436    0.10197
 H              3.92156    4.16052    4.03679           -0.135507  -0.059085  0.0571486
