125

 H             0.733264  -0.612887   0.550885            0.188981    0.21282  -0.463176
 H              1.34444    0.29272   0.468344          -0.0125993   0.258811 -0.0383427
 H              2.10084  -0.585832   0.639953           -0.118134   0.181604  0.0970842
 H              3.05546   0.299088   0.434186           0.0994527   0.126498 0.00886915
 H              3.67673  -0.585804   0.477843           -0.490069  -0.616183   0.436539
 H             0.434575   0.811104   0.155354             0.119389 -0.00532731    0.112051
 H              1.30043    1.41859   0.459576          -0.0680264  0.0765945   0.129194
 H              2.19632   0.877573   0.132001            0.157867  -0.266995   0.157543
 H              3.11277    1.40287   0.488424             0.16169 -0.0353618  -0.136471
 H              3.97969   0.837008   0.120612            0.140652 -0.0543817  -0.138767
 H             0.387419    1.94932   0.146695            0.112878  -0.173427 -0.0238203
 H              1.31575    2.52407    0.47024            0.148416  -0.109719  0.0284697
 H              2.22323     1.9718   0.145387          -0.0702812  -0.181634 -0.0638575
 H              3.11131     2.5087   0.486071           -0.262709 -0.0619531  -0.045026
 H              4.03898    1.95964    0.18097           -0.120207  -0.218116 -0.0216667
 H             0.418107    3.07535   0.150773           0.0174402  -0.153253  -0.265221
 H              1.31919    3.62482   0.510037          -0.0988191   0.134793  0.0943397
 H              2.20599    3.08633   0.150482          -0.0908096  0.0817897 -0.0648868
 H              3.09501    3.62161   0.503765           0.0302491  -0.040641 -0.0865325
 H              3.99536     3.0747   0.178551            0.185804  0.0794263 -0.0951925
 H             0.419558    4.18685   0.215734           0.0839123   0.206513 -0.0907644
 H              1.30328    4.74997   0.548563            0.166154   0.255099  0.0143442
 H              2.18171    4.19866   0.209438           -0.161352  0.0338972   0.124269
 H              3.05817    4.73995   0.550406          -0.0780301  -0.227345   0.099128
 H              3.96111    4.19709   0.176351           0.0110183   0.202594   0.197347
 H             0.421494    0.28925    1.11453           0.0852289   0.188625   0.206852
 H               1.3241  -0.276995    1.40104           -0.145705   0.186633 -0.0642543
 H              2.19197   0.342625    1.11946            0.276776  0.0242289   0.120209
 H              3.05229  -0.264608     1.3849          -0.0850797   0.177859  -0.011309
 H              3.95893   0.280534    1.09426            0.100346  -0.133699  0.0289741
 H             0.388853    1.40117    1.12057           0.0993384 -0.0187189   0.270124
 H              1.29006   0.870737    1.41785            0.143265 -0.0678612   0.126085
 H              2.19659    1.41156    1.09543            0.237582  0.0970813  -0.120416
 H              3.09207   0.850979    1.42058            0.130197   0.150291  0.0130232
 H                4.021    1.38082    1.11607            0.124724  0.0240974 -0.0131055
 H             0.409599     2.5105     1.1052            0.196615   0.170447  0.0421582
 H              1.29277    1.96274    1.41158            0.0461525 -0.00711126  -0.0584644
 H              2.20602    2.51055     1.1192           0.0488606   0.022121  -0.123455
 H              3.10646     1.9489    1.44031           0.0771385 -0.0125873 -0.0523118
 H              4.00706    2.49419    1.12245           -0.206928 0.00938703  -0.108189
 H             0.402684    3.60074    1.13654           -0.401164 0.00454309  0.0723165
 H              1.30131    3.04479    1.44186          -0.0182416   0.100133  0.0899697
 H              2.19485    3.58981    1.13224          -0.0177671  0.0811233   0.116051
 H              3.09108    3.05314    1.43924             0.15713 -0.0690196 -0.0639413
 H              3.99817    3.60625    1.14886            0.266792 -0.0241932 -0.0336185
 H             0.403704    4.70877    1.17479            0.158517   -0.13022  0.0696573
 H              1.29085     4.1162    1.48262          -0.0934508 0.00641533  -0.037238
 H              2.17357    4.71143    1.20791          -0.0622813  -0.305029 -0.0455519
 H              3.07936    4.13436    1.48032          0.00620694  0.0181973   0.069963
 H              3.97796    4.70975    1.19111            0.100148   0.191185 -0.0320457
 H             0.434003  -0.275685    2.03787           -0.063483 -0.0880793  0.0789424
 H              1.29937   0.311356     2.3339          0.00347949  0.0650827 -0.0289434
 H              2.19085  -0.297161    2.06172          -0.0995443  -0.176358  0.0889708
 H               3.0985   0.298943    2.34755          -0.0382066   0.177252 -0.0895699
 H              3.95604  -0.283381    2.05541           -0.146597  -0.100499 -0.0222874
 H             0.372355   0.840082    2.03826           0.0581389   0.016402 -0.0667861
 H              1.28961    1.39134    2.35482            0.186342  0.0178803  0.0757661
 H              2.19049   0.848541    2.05551          -0.0713633   0.172276 -0.0275012
 H              3.10434    1.37785    2.37517          -0.0787817 -0.0640209  0.0248757
 H              4.01527   0.845479    2.06151           -0.045441 -0.0697273 0.00141745
 H             0.384114    1.93984    2.07622            -0.05716   0.177307  0.0826643
 H              1.30446    2.46412    2.38504           -0.137638 -0.0476122 0.00957262
 H              2.21129    1.93469    2.05559           0.0443873 -0.0651222  0.0763408
 H               3.1078    2.46957    2.39069             0.18449 -0.0891979  0.0642427
 H              4.01015    1.93737    2.06076            0.184518   0.116954  0.0645097
 H             0.413082    3.05075    2.08306           0.0256338  -0.230095  0.0190156
 H              1.30988    3.54046    2.40433           -0.156127 -0.0917501   0.054579
 H              2.20248    3.00904    2.08873          -0.0408654  0.0184501 -0.0345443
 H              3.10344    3.55402    2.42305          -0.00151253   0.0035268 -0.00882406
 H              3.97735    3.03461    2.09527           0.0253789  0.0467805   -0.24902
 H             0.433257    4.13688    2.10818           -0.151185  -0.119064  -0.179597
 H              1.35237    4.67749     2.4094           -0.257788   -0.21841 -0.0686646
 H              2.19166    4.08138    2.10564            0.163532  0.0265799 -0.0311316
 H              3.07118    4.68627    2.40429           -0.154042 -0.0138391  0.0748766
 H              3.96674    4.15614    2.12283           0.0340389  -0.161302  -0.189054
 H             0.417666   0.266435    2.98472            0.135923 -0.0116172  0.0363912
 H              1.34013  -0.283244    3.27567           0.0881945  0.0982625  -0.192772
 H              2.22386   0.302715    2.99427            0.209297 -0.0201268  0.0499739
 H              3.08961  -0.312612    3.25617           -0.106252 -0.0838265  -0.291273
 H              3.98201   0.254459    2.99855           -0.197222   0.054071 -0.0189913
 H             0.404562    1.37453    3.00733           0.0775543   0.145395  0.0569449
 H               1.3167   0.820913    3.29001          -0.0334579    0.12702  -0.101291
 H               2.1992    1.39514    3.00717           0.0705129  0.0456825 0.00110508
 H              3.10215   0.831544    3.30523           0.0590006  -0.010778  0.0479153
 H              4.00305    1.37851    3.00367            -0.069554    0.145981 -0.00763873
 H             0.394365    2.49007    3.02777           0.0838655 -0.0921509  0.0972476
 H               1.3058    1.91406     3.3248          -0.0364129 -0.0465502  0.0162921
 H              2.21382    2.46866     3.0269            0.105929 -0.0796269   0.289037
 H              3.10909    1.91274    3.32538            -0.192816 -0.00900443  -0.0878149
 H               3.9998     2.4737    3.03657           -0.147048  -0.122654  0.0730351
 H             0.422585    3.61227    3.05009          -0.0161612  0.0638048 -0.0779473
 H              1.30963    3.00442    3.35078          -0.0172144  0.0713373   0.230813
 H              2.21017    3.54613    3.04171          -0.0991497 -0.0444722    0.17321
 H              3.10411    2.99704    3.34986           0.0294919   0.173806   0.054279
 H              4.00809    3.57774    3.06065           0.0502697 -0.0286972  -0.176631
 H             0.488665    4.73132     3.0546           -0.235275  -0.140141 -0.0720201
 H              1.33465    4.07844    3.33193           0.0766262  0.0570013 -0.0117616
 H               2.2084    4.67411    3.06681           -0.0303743    0.143969 -0.00126715
 H              3.09635    4.06503    3.34984             0.0356186 -0.000259542     0.268889
 H              3.93515    4.72205    3.08236            0.165207 -0.0353478  -0.274056
 H             0.421949  -0.295317    3.92009           0.0110061   0.018106 0.00694059
 H              1.30635   0.264889    4.25453            0.077296   0.194817   0.178417
 H              2.22521  -0.254629    3.93398           0.0317624 -0.0110873  0.0339422
 H              3.11307   0.275984    4.23361           -0.124789  0.0760347  -0.163445
 H              3.96637  -0.308826    3.93644           0.0840353 -0.0582041  -0.449911
 H             0.408232   0.810365    3.95163          -0.0665395  -0.177543 -0.0763802
 H               1.3059    1.36578     4.2673            0.217555   0.247333 -0.0588022
 H              2.20086   0.833606    3.94078            0.018327 -0.0333177   0.199562
 H              3.09923    1.37156    4.28322           -0.153961  -0.146553  0.0787702
 H              4.02687     0.8201    3.97141          -0.00777475  -0.0220263   0.0873087
 H             0.409129    1.91164    3.96754           0.0278329   0.219295 -0.0907785
 H              1.28939    2.45772    4.29058           0.0368113  0.0886374  -0.157463
 H              2.20017    1.93794    3.96672           -0.054171 -0.0381178   0.183746
 H              3.08719    2.46775    4.30465           0.0525147 -0.0592107   0.164446
 H              3.99654    1.92847    3.97258           -0.105261 -0.0181652 0.00709765
 H             0.391489    3.04726    4.00324          -0.0564433  0.0382443  -0.211681
 H              1.30893    3.57389    4.30462          -0.0491489   0.112668    0.21403
 H              2.20978    3.03164    3.97953           0.0587262  -0.127489  0.0246713
 H              3.06169    3.58489    4.35123           -0.137895  0.0632499  -0.352715
 H              3.96928    3.03748     4.0095           -0.104631  -0.114518  -0.155207
 H             0.451562    4.20373    4.00668          -0.0033198  -0.051822  0.0477879
 H              1.42925    5.03305    3.79802          0.00212798  -0.190724   0.256009
 H              2.17731    4.12826    4.01701           -0.110519 -0.0829507   0.207239
 H              2.95327    4.96556    3.87418           -0.292008    -0.0202  0.0380876
 H              3.93983    4.16956     4.0537            -0.0455561 -0.000977594    -0.240132
