125

 H             0.821071  -0.639142   0.569567            0.223608  0.0879053  -0.148825
 H              1.34239    0.30963   0.466331            -0.137914   -0.324967 -0.00254442
 H              2.13044   -0.57018   0.647694            0.108807  -0.360703   -0.06534
 H               3.0751   0.302821   0.437163          -0.0038301   0.115874   0.013313
 H               3.6127   -0.66715   0.535545          -0.0907095 -0.0857173   0.225942
 H             0.467921   0.857677   0.114897           -0.184595  0.0484928  -0.044411
 H              1.32106    1.42497   0.476048           -0.240758   0.168977   0.101063
 H              2.21274   0.870249   0.176611            0.081043  0.0237834   0.190836
 H              3.08488     1.4241   0.496907           -0.050522   0.355642  0.0138312
 H              3.96867   0.831322   0.154625          0.00172739 0.00543371    0.14762
 H             0.386915    1.97067   0.151504           0.0531898  0.0932774 0.00397382
 H              1.28881    2.52023   0.507849           0.0392195    0.17386  -0.039241
 H              2.20777     1.9837   0.143688            -0.27755 -0.0602291 -0.0230454
 H              3.07985    2.52479   0.474994          -0.0303259  -0.114967 -0.0420038
 H                3.993    1.95434   0.155632             0.0404394 -0.000595583    -0.174125
 H             0.379855    3.07758   0.179201           -0.107961 -0.0858527  -0.165429
 H              1.30847    3.62219   0.526271          0.00668503 -0.0408256   0.121436
 H              2.19188    3.07697   0.168989           -0.135117 -0.0371868  -0.147231
 H               3.0879    3.61535   0.490635           0.0717152   0.114758   0.130654
 H              3.97942    3.06837    0.15066            -0.134634 -0.00587622    0.232695
 H             0.419446    4.18145   0.195005           -0.271988  -0.108988  -0.114203
 H              1.31783    4.73014   0.544191          -0.0135542  0.0134832  -0.112208
 H              2.20622    4.18874   0.224336            0.149136  0.0970696 -0.0423886
 H              3.08352    4.72008    0.54969          -0.0663244   0.028362 0.00590983
 H              4.00802    4.16417   0.175659           0.0726466  -0.146812 -0.0698568
 H             0.428919    0.27821    1.07587           -0.230706 -0.0730887 -0.0838112
 H              1.35188  -0.265313    1.40696           -0.112157  -0.147348  -0.177119
 H              2.22093   0.353531    1.14789          -0.00495629  -0.0338007   0.0996997
 H              3.07446  -0.263168    1.40069           0.0815252   0.313233   0.123377
 H              3.97429   0.275628    1.10243           -0.184466  0.0640491  0.0347348
 H             0.408871     1.4066    1.08607            0.161355 -0.0327668  -0.377687
 H              1.30623   0.858542    1.41763           -0.109692  0.0649583   0.170784
 H              2.20805    1.41991     1.1198            0.117055  0.0567282  -0.250706
 H              3.09687   0.870041    1.41908            0.161864   0.056957   0.270782
 H              4.00645    1.38573    1.10365            0.190349  0.0817952    0.16857
 H             0.394281    2.50409    1.12821          0.00720583 -0.0160029   0.110015
 H               1.3084    1.94804    1.44004           0.0392562  0.0777613  0.0925756
 H              2.20128    2.48115    1.11944           -0.284325  -0.106789   0.032121
 H              3.09299     1.9609    1.44123            0.331614   0.294405  -0.126739
 H              4.00831     2.5123    1.11801          -0.0178722 -0.0792133  -0.292014
 H             0.401936    3.60305    1.16359           -0.117516 -0.0722473   0.144106
 H               1.3005    3.02719    1.43917          -0.00264265  -0.0464696   0.0486591
 H              2.19931    3.58658    1.14189           0.0711885   0.151225  -0.207978
 H              3.09913    3.03748    1.43709          0.00512524  0.0290129 -0.0890847
 H              4.01517     3.6265    1.14383            0.128465  -0.148011    0.24085
 H             0.427912    4.70376    1.20888           -0.104165  -0.204342 -0.0665713
 H              1.30854    4.11756    1.47338            0.0179205   0.0459155 -0.00927499
 H              2.20346    4.69969     1.2049            0.148876   0.105289   0.176543
 H              3.08474    4.11067    1.45706            0.246083   0.100482 -0.0297976
 H              3.96195    4.72817    1.19106           0.0169555   0.126938   0.135459
 H             0.454362   -0.28321    2.04607           -0.194052 -0.0598568 -0.0865108
 H              1.31658   0.307054    2.34206           -0.148061  -0.150529    0.13564
 H              2.20878  -0.257209    2.08222            -0.17991  0.0239026  0.0907879
 H              3.09282   0.296833    2.32774            0.172141  0.0345037 -0.0287699
 H              3.96008   -0.31394    2.07691          0.00840529  -0.016257   0.101566
 H             0.388451   0.825422    2.03367           -0.165091  -0.098796 -0.0570609
 H              1.30246     1.3904    2.37021           0.0954876  0.0464699 0.00506423
 H              2.21374   0.872858    2.06937           -0.129038  0.0544121 -0.0263006
 H              3.09786    1.39689    2.37855            0.144811  0.0850407   0.170368
 H              4.00888   0.830595     2.0533          -0.0288759  -0.438985  0.0922661
 H             0.383488    1.93579     2.0523           -0.123597   0.288733   0.110568
 H              1.30534    2.48562    2.40882           -0.173779 -0.0562011  -0.193658
 H              2.20774    1.95238    2.07023          -0.0141759 -0.0909835   0.055236
 H              3.10971    2.47912    2.39709          -0.0551773  0.0925573 -0.0985693
 H              4.00343    1.94927    2.06119           -0.145302  0.0530693   0.226254
 H              0.40285    3.02113    2.10746          0.00401818 -0.0926444 -0.0910071
 H              1.31407    3.56418    2.40511           -0.085123  0.0743904   0.182686
 H              2.21067    3.02795    2.08428          -0.0896051  -0.159507   0.179804
 H              3.09951    3.55332    2.40238           0.0101696 -0.0744797   0.139953
 H               4.0037     3.0332    2.07343           0.0885343  -0.133011   0.161535
 H             0.422697    4.12156     2.1223           0.0189591   0.178575  -0.181683
 H              1.33887    4.71595    2.34878            0.122842  0.0769984 -0.0304177
 H              2.20248    4.11274    2.11288           0.0876567 -0.0950333  -0.414636
 H              3.07349     4.6872     2.3716          -0.0532877  0.0450192  -0.128542
 H              3.98554     4.1438    2.10716          -0.00518917    0.122898    0.121197
 H              0.40502   0.287056    2.97348          -0.0262077   0.142128  0.0720302
 H              1.31282  -0.287463     3.2407           0.0965973    -0.1459   -0.12085
 H               2.1921   0.323786    2.99378          -0.0917919   0.100981  0.0236383
 H               3.0727  -0.304459    3.24282           -0.129184 -0.0465368 -0.0264807
 H              3.98407   0.303484    2.99134           -0.107241 -0.0121303  0.0646112
 H              0.39165    1.37881    2.98591          -0.0953854 -0.0878836  -0.181311
 H              1.29929   0.826542    3.31736              0.1647   0.144354 -0.0791202
 H              2.19472    1.40006    3.01075           0.0378935  -0.194573 -0.0689802
 H              3.10083   0.833762     3.2943            0.245495  0.0363507  -0.129646
 H              3.99356    1.39953    3.00722             0.171196 -0.00611044  -0.0885973
 H             0.398257    2.48582    3.04533            0.143448   0.404387  0.0221579
 H              1.29517    1.92178    3.34395          -0.0878987  -0.108435 -0.0366415
 H              2.22128    2.47041     3.0352          -0.0318136  -0.214657  -0.268801
 H              3.09756    1.92586    3.32964            0.0290575 -0.00673088   -0.124232
 H              4.00188    2.49356    3.02141           -0.048721   -0.12336   0.092005
 H             0.405916     3.5976    3.06797           -0.126629 -0.0436158   0.128376
 H              1.30238    3.01312    3.36083            0.310871   0.115663  -0.222288
 H              2.19776    3.54968    3.04041           -0.071304 -0.0542626  0.0760448
 H              3.09807    3.02082    3.34273             0.14003   0.051516  0.0337118
 H              3.99602    3.62645    3.05197          0.00342692  -0.114917 -0.0475288
 H              0.48306    4.75884    3.04264          -0.000498561   -0.0478841   -0.0348737
 H              1.31725    4.08406    3.31724            0.190224  -0.240997 -0.0754015
 H                2.192    4.71819    3.05082          -0.0695941  0.0650414  0.0610762
 H              3.06197    4.09351    3.31888           -0.044812 -0.0168642  -0.139667
 H              3.91543     4.7276    3.05473           -0.109381     0.1513  0.0338127
 H             0.407042  -0.311162    3.90174             0.10741   0.103668   0.199777
 H              1.32522   0.240397    4.24672            -0.032183  -0.0295699 -0.00149661
 H              2.17571  -0.334787    3.87187          -0.0046422 -0.0507047    0.05771
 H              3.08132   0.245311    4.22372            0.146966 -0.0699237 -0.0129172
 H              3.97984  -0.323039    3.91149           0.0624538  0.0479963  -0.174438
 H             0.420681   0.798859    3.93513            0.130158 -0.0937726 -0.0486371
 H              1.30483    1.34558    4.29233            0.120417  0.0573186   0.175857
 H              2.20123   0.803763    3.94675           0.0480138  -0.134498  -0.055865
 H              3.08446    1.34974    4.26505           0.0605856  -0.018604   0.177553
 H              3.98882   0.810654    3.95808           -0.225642  0.0467665  -0.358862
 H             0.396417    1.90752    3.97286           -0.214589 -0.0676463  0.0385638
 H              1.28913    2.45527    4.31261           0.0532063  0.0693862 0.00191541
 H              2.19409    1.91051    3.99334           0.0666738 0.00466899  -0.441523
 H              3.09275    2.46769    4.29327            0.164583 -0.0284366   0.115415
 H              4.00774    1.92021    3.97336          -0.00660658    0.244939    0.200241
 H             0.380272    3.04754    4.01009           -0.191283  -0.198363   0.227734
 H              1.29962    3.57768    4.30903           0.0354232  0.0135845 -0.0182404
 H              2.19594    3.01312    3.98588            0.212941  0.0841088  -0.021566
 H              3.07015     3.5711    4.30628          -0.00593816    0.139005    0.110294
 H               3.9796    3.03363    3.98251            0.141054  0.0204472  0.0832534
 H              0.47207     4.1943    4.00929          -0.0246623 -0.0054743 -0.0448838
 H              1.42414    5.00564    3.83668           -0.0605958   -0.188606 -0.00137615
 H              2.18144    4.13751    3.99312           0.0491197 -0.0166371   0.182093
 H              3.03504    4.93684    3.95618           0.0334087 -0.0790442 -0.0265078
 H              3.91333    4.18891    4.02457           0.0197169   0.129375   0.103175
