125

 H             0.774679  -0.657183   0.600298          -0.0189057 0.00722451  -0.042564
 H              1.33808   0.291186     0.4717           0.0470367   0.161068   0.205163
 H              2.07734  -0.547432   0.590145          -0.00231123   -0.184336    -0.23905
 H               3.0848   0.311304   0.469606            0.121308  0.0106717 -0.0831173
 H              3.63959  -0.617133   0.512919           -0.100312   0.261909  0.0198204
 H             0.434894   0.833358   0.155359           -0.118302 -0.0915527 -0.0212741
 H              1.31332    1.39608   0.494527           0.0216215  0.0214712    0.03712
 H              2.20593   0.842328   0.149266            0.167984 -0.0145118  -0.282498
 H              3.08976    1.40285   0.478284           0.0285417  0.0098705   0.207411
 H              4.00382   0.828737   0.128805            0.219791   0.233144 -0.0738043
 H             0.408059    1.94726   0.144486           -0.218074  -0.227219 -0.0416642
 H              1.31108    2.49798   0.498828            0.339434 0.00146487   0.140912
 H              2.20392    1.96456   0.163054           -0.150545   0.030977 -0.0956928
 H              3.09813    2.51811   0.482748           0.0895676  -0.084688   0.107155
 H              3.97187    1.96854   0.104684           0.0750826  -0.115092  0.0345685
 H             0.401359    3.08112   0.181651           0.0447381  -0.275357   0.121114
 H              1.32196    3.60159   0.510871           -0.102722  0.0776876   0.038095
 H              2.19173    3.07066   0.180379           -0.157705   0.136198  0.0754285
 H              3.10061    3.61034   0.505447          -0.0057521   0.160438 -0.0764911
 H              3.98962    3.08209   0.138222           -0.222913   -0.08472  0.0620359
 H             0.441177    4.20274   0.209505           0.0499438  0.0482209   0.136618
 H              1.32182    4.74143   0.568114           -0.053632  0.0572682  0.0178486
 H              2.19576    4.17642   0.215477           -0.102587   -0.12692   0.274746
 H              3.07962    4.72702   0.551951            0.495279    -0.1782   0.062147
 H              4.00558    4.21584   0.204312            -0.22813  0.0653299  -0.131145
 H              0.44909   0.286021     1.1117          -0.0765939   0.190085  -0.121126
 H              1.36081  -0.248636    1.41783           -0.0139899 -0.00815752   -0.206225
 H              2.22634    0.34803    1.13537            0.235755   -0.16993 0.00928431
 H              3.07251   -0.26895    1.39693             0.22663  0.0718393  -0.114804
 H              3.97969   0.297665    1.09305            -0.358636   0.0930894 0.000659951
 H             0.422489    1.39641     1.1169           0.0964717  -0.181164   0.206626
 H              1.32947   0.862669     1.4268            0.087493  -0.199655 -0.0712217
 H              2.21029    1.41883    1.10182          -0.0410933 -0.0790231   0.286711
 H               3.1152   0.868843    1.41416           0.0274319   0.346923  0.0193885
 H              4.01911    1.40239    1.07297          -0.00107261  -0.0169496   0.0332366
 H             0.404472    2.49699    1.12619            0.110449   0.145337  0.0396943
 H              1.31029    1.94817    1.43853          -0.0974752  0.0488032  0.0408829
 H              2.20434    2.50003    1.12975            0.339444  -0.141196   -0.07266
 H              3.10697    1.94622    1.44303          -0.0626397   -0.19226  0.0203632
 H              4.01245    2.49839    1.10276           0.0605184  -0.101067 -0.0323132
 H             0.406334    3.62353    1.14168          -0.0980083 -0.0818014  0.0748764
 H              1.31568    3.04022    1.43514          -0.0900647  0.0209466   0.374765
 H              2.20714     3.5984    1.14407            0.101409 -0.0173014  0.0170862
 H               3.1077    3.03365    1.43991           0.0215041 -0.0128129 -0.0472319
 H              3.99868    3.60681    1.12461             0.104713   -0.173613 -0.00036574
 H             0.429514    4.73785    1.19848          -0.0948518   0.184744 -0.0806661
 H              1.30248    4.14293    1.46874           0.0937582  -0.111167   -0.14618
 H              2.19447    4.73017    1.21275           -0.191789  -0.151948 -0.0520245
 H              3.09121    4.12206    1.46159          -0.00396752   -0.011187   -0.286412
 H              3.96162    4.72187    1.21251          -0.0432272  -0.300102 -0.0095997
 H             0.436891  -0.276485    2.04459            -0.236307 -0.00581152   0.0796701
 H              1.31641    0.30098     2.3379           -0.224733 -0.0992425   0.036881
 H                 2.22  -0.305529    2.08971          -0.0863886  0.0018946   0.129051
 H              3.10242   0.310306    2.34232          -0.0455713   0.463325 -0.0576314
 H              3.98112  -0.302835    2.02823           0.0593757  0.0450571   0.053801
 H             0.404916   0.840211    2.05331           0.00208061 0.000542871   0.0587746
 H              1.28442     1.3854    2.37821           -0.233036  -0.182695 -0.0999975
 H              2.21292     0.8581    2.07006           -0.070955    0.20145  0.0709273
 H              3.10512    1.39961    2.38728          -0.0788959 -0.0102485   0.321519
 H              4.01093   0.849176    2.04219           -0.165431   0.196547  -0.136143
 H             0.377649    1.95264    2.07203           0.0570906 -0.0185643 -0.0527016
 H              1.30971    2.46939    2.39811            0.111327    0.15556   -0.06219
 H              2.20164    1.93077    2.06687            0.139837    0.17234  -0.134324
 H              3.11129    2.47863    2.39244            0.036656 0.00776941  -0.107139
 H              4.00551    1.93587    2.05362           -0.294816 -0.0562769  0.0680308
 H             0.400734    3.03441    2.07599            0.106634   0.100078   -0.01142
 H              1.30833    3.56034    2.39917            0.088198 -0.0631838  -0.212139
 H              2.20485    3.01269    2.07244             0.20489  0.0966051 -0.0144216
 H              3.09416    3.55731    2.39627           0.0265512  0.0491601 -0.0120389
 H              4.00376    3.03095    2.06463           -0.144242    0.10835  -0.197021
 H              0.42132    4.13497    2.10396          -0.0794223  0.0299095 -0.0215884
 H              1.32364    4.70218     2.4088          -0.00682495  -0.0264955   -0.113572
 H              2.20249    4.10606    2.10927           -0.124367  -0.183816  0.0136525
 H              3.06472    4.68726    2.38788           -0.175969  0.0820292   0.137246
 H              4.01233    4.14345    2.12468          -0.0295554  -0.143152    0.11417
 H             0.414213   0.288554    2.98018           0.0826434   0.208012   0.249592
 H              1.29132  -0.283042    3.25258           0.0200138  -0.147221   0.176384
 H              2.21305   0.301729    2.99129           -0.174801 -0.0424136  -0.178819
 H              3.07413  -0.299934    3.23009            0.0694883 0.000673493  -0.0564563
 H              4.02019   0.277791    2.98725            0.115798 -0.0535257  0.0259728
 H             0.405504    1.38916    3.02197           0.0500366  0.0455094 -0.0582216
 H              1.31694   0.826163    3.31142            0.081171  0.0193875  -0.142797
 H              2.21377    1.38374    3.02958           0.0921604  -0.104564  0.0609545
 H              3.09493   0.817046    3.30294           -0.027513  -0.153708  0.0400088
 H              4.00787     1.3973    3.00094           0.0656021  0.0344603   0.253053
 H             0.395414    2.48595    3.02497            0.301629   0.121703  -0.225785
 H              1.29766    1.93483    3.33757           -0.147129   0.103345   0.258009
 H              2.20516    2.48781    3.02285           0.0853986  0.0589432  -0.223174
 H              3.10622    1.92588    3.33078             0.29959 -0.0437592 -0.0638623
 H              4.00088    2.48539    3.02345           -0.203669   0.150516  -0.130855
 H             0.392553    3.57719    3.04197           -0.129044   0.166991 -0.0567736
 H              1.27788    3.03063    3.35877            0.310742  -0.023417  -0.163938
 H              2.19055    3.55321    3.02941            0.184758  -0.167133  0.0828604
 H              3.08032    3.00997    3.35353           -0.122038   0.176087  0.0374633
 H              4.02663    3.58237    3.06019          -0.00160138    -0.28757    0.097972
 H             0.448125    4.72356     3.0419          0.00606986   0.117393   0.270142
 H              1.30386    4.08463    3.32705          -0.0834509  -0.102671 -0.0197587
 H              2.19212    4.68031    3.06441           0.0644622 -0.0374315 -0.0499447
 H              3.08643    4.06853    3.31701           0.0541063   0.094164  0.0113533
 H              3.91117    4.73243     3.0564          -0.0781772   0.202098     0.2012
 H             0.390429  -0.312511    3.91999          -0.0834879  -0.229219 -0.0803022
 H              1.27256   0.242272    4.23805           0.0852303  -0.056496 -0.0128926
 H              2.18861  -0.304467    3.89078           0.0247843 -0.0532199  -0.102795
 H              3.09247   0.244108    4.23193          -0.0686323    0.14203 -0.0671947
 H              3.95063  -0.335365    3.92042            0.162303  -0.258738  -0.146437
 H              0.37908    0.81776    3.95411          0.00392055 -0.0112626 -0.0834493
 H               1.2911    1.35923    4.26914           -0.120676  0.0152298   0.197994
 H              2.19685   0.803048    3.95298            0.206218  -0.125789 -0.0323625
 H              3.07816    1.35176    4.26185          -0.0492971   0.234318   0.105574
 H              4.00745   0.814656    3.94616          -0.0774361  -0.136961 -0.0631856
 H             0.380319    1.94029    4.00943            -0.104437 -0.00556561   -0.186785
 H              1.31701    2.46896    4.31352          -0.0838843   0.154765 -0.0214464
 H              2.19575    1.92896    3.96202           0.0250306  -0.284855  0.0103858
 H              3.07419    2.45437     4.3164           -0.212438 -0.0812914   0.125641
 H              3.97452    1.91445    3.99629           -0.160274   0.020615   0.158795
 H             0.380645    3.05216    3.98023          -0.0024645  0.0924247  0.0768378
 H              1.29156    3.60398     4.3076           0.0443439  0.0375112   0.232189
 H               2.1741    3.05055    3.98542           -0.034876  -0.145474  0.0445623
 H              3.07458    3.56024    4.31478          -0.0126438 -0.0308896 -0.0470015
 H              3.97096    3.03966    3.98868           0.0563961  0.0869057 -0.0237139
 H             0.448996    4.19161     3.9877          -0.0869873 0.00953255  -0.204025
 H              1.45631    4.94549    3.94938           0.0132099  0.0479984  -0.023106
 H              2.20973    4.13411    3.98095            0.126496   0.221459   -0.24513
 H              2.96163    5.01122    3.81624           0.0278115  0.0662627 -0.0448242
 H               3.9153    4.16604    4.02961           0.0188134 -0.0190742  -0.148931
