125

 H           -0.0400055 -0.0400055 -0.0400055            0.110651   0.110651   0.110651
 H              1.06531  0.0198428  0.0198428           0.0569514   0.109667   0.109667
 H                  2.2    0.03598    0.03598          -5.26117e-11     0.162256     0.162256
 H              3.33469  0.0198428  0.0198428          -0.0569514   0.109667   0.109667
 H              4.44001 -0.0400055 -0.0400055           -0.110651   0.110651   0.110651
 H            0.0198428    1.06531  0.0198428            0.109667  0.0569514   0.109667
 H              1.11541    1.11541  0.0190387            0.173837   0.173837  -0.110801
 H                  2.2    1.12286  0.0299157          1.69701e-10    0.230751    0.170436
 H              3.28459    1.11541  0.0190387           -0.173837   0.173837  -0.110801
 H              4.38016    1.06531  0.0198428           -0.109667  0.0569514   0.109667
 H              0.03598        2.2    0.03598              0.162256 -6.17545e-11     0.162256
 H              1.12286        2.2  0.0299157             0.230751 1.97633e-10    0.170436
 H                  2.2        2.2  0.0440519          -1.74758e-10 -1.99575e-10     0.569154
 H              3.27714        2.2  0.0299157            -0.230751 1.88853e-10    0.170436
 H              4.36402        2.2    0.03598           -0.162256 -5.898e-11   0.162256
 H            0.0198428    3.33469  0.0198428            0.109667 -0.0569514   0.109667
 H              1.11541    3.28459  0.0190387            0.173837  -0.173837  -0.110801
 H                  2.2    3.27714  0.0299157          1.66996e-10   -0.230751    0.170436
 H              3.28459    3.28459  0.0190387           -0.173837  -0.173837  -0.110801
 H              4.38016    3.33469  0.0198428           -0.109667 -0.0569514   0.109667
 H           -0.0400055    4.44001 -0.0400055            0.110651  -0.110651   0.110651
 H              1.06531    4.38016  0.0198428           0.0569514  -0.109667   0.109667
 H                  2.2    4.36402    0.03598          -5.24318e-11    -0.162256     0.162256
 H              3.33469    4.38016  0.0198428          -0.0569514  -0.109667   0.109667
 H              4.44001    4.44001 -0.0400055           -0.110651  -0.110651   0.110651
 H            0.0198428  0.0198428    1.06531            0.109667   0.109667  0.0569514
 H              1.11541  0.0190387    1.11541            0.173837  -0.110801   0.173837
 H                  2.2  0.0299157    1.12286          1.64272e-10    0.170436    0.230751
 H              3.28459  0.0190387    1.11541           -0.173837  -0.110801   0.173837
 H              4.38016  0.0198428    1.06531           -0.109667   0.109667  0.0569514
 H            0.0190387    1.11541    1.11541           -0.110801   0.173837   0.173837
 H              1.09844    1.09844    1.09844           0.0852205  0.0852205  0.0852205
 H                  2.2    1.10238    1.10238          -5.52988e-10     0.107622     0.107622
 H              3.30156    1.09844    1.09844          -0.0852205  0.0852205  0.0852205
 H              4.38096    1.11541    1.11541            0.110801   0.173837   0.173837
 H            0.0299157        2.2    1.12286             0.170436 1.96284e-10    0.230751
 H              1.10238        2.2    1.10238              0.107622 -6.56772e-10     0.107622
 H                  2.2        2.2    1.12666          6.54494e-10 7.66415e-10    0.138184
 H              3.29762        2.2    1.10238             -0.107622 -6.34613e-10     0.107622
 H              4.37008        2.2    1.12286            -0.170436 1.89124e-10    0.230751
 H            0.0190387    3.28459    1.11541           -0.110801  -0.173837   0.173837
 H              1.09844    3.30156    1.09844           0.0852205 -0.0852205  0.0852205
 H                  2.2    3.29762    1.10238          -5.51561e-10    -0.107622     0.107622
 H              3.30156    3.30156    1.09844          -0.0852205 -0.0852205  0.0852205
 H              4.38096    3.28459    1.11541            0.110801  -0.173837   0.173837
 H            0.0198428    4.38016    1.06531            0.109667  -0.109667  0.0569514
 H              1.11541    4.38096    1.11541            0.173837   0.110801   0.173837
 H                  2.2    4.37008    1.12286          1.66383e-10   -0.170436    0.230751
 H              3.28459    4.38096    1.11541           -0.173837   0.110801   0.173837
 H              4.38016    4.38016    1.06531           -0.109667  -0.109667  0.0569514
 H              0.03598    0.03598        2.2              0.162256     0.162256 -2.26586e-11
 H              1.12286  0.0299157        2.2             0.230751    0.170436 8.91872e-11
 H                  2.2  0.0440519        2.2          -1.64079e-10     0.569154 -1.19973e-10
 H              3.27714  0.0299157        2.2            -0.230751    0.170436 1.40537e-10
 H              4.36402    0.03598        2.2             -0.162256     0.162256 -4.82998e-11
 H            0.0299157    1.12286        2.2             0.170436    0.230751 8.85343e-11
 H              1.10238    1.10238        2.2              0.107622     0.107622 -3.36384e-10
 H                  2.2    1.12666        2.2          6.45398e-10    0.138184 4.89858e-10
 H              3.29762    1.10238        2.2             -0.107622     0.107622 -4.82055e-10
 H              4.37008    1.12286        2.2            -0.170436    0.230751 1.55509e-10
 H            0.0440519        2.2        2.2              0.569154 -2.01556e-10 -1.19303e-10
 H              1.12666        2.2        2.2             0.138184 7.87666e-10 4.91024e-10
 H                  2.2        2.2        2.2          -8.27685e-10 -9.97007e-10 -7.08854e-10
 H              3.27334        2.2        2.2            -0.138184  7.7037e-10 6.20602e-10
 H              4.35595        2.2        2.2             -0.569154 -1.98392e-10 -1.71413e-10
 H            0.0299157    3.27714        2.2             0.170436   -0.230751 1.39863e-10
 H              1.10238    3.29762        2.2              0.107622    -0.107622 -4.80106e-10
 H                  2.2    3.27334        2.2           6.5243e-10   -0.138184 6.16005e-10
 H              3.29762    3.29762        2.2             -0.107622    -0.107622 -5.67957e-10
 H              4.37008    3.27714        2.2            -0.170436   -0.230751 1.79599e-10
 H              0.03598    4.36402        2.2            0.162256  -0.162256 -4.794e-11
 H              1.12286    4.37008        2.2             0.230751   -0.170436 1.53483e-10
 H                  2.2    4.35595        2.2          -1.71279e-10    -0.569154 -1.67818e-10
 H              3.27714    4.37008        2.2            -0.230751   -0.170436 1.78244e-10
 H              4.36402    4.36402        2.2             -0.162256    -0.162256 -6.16767e-11
 H            0.0198428  0.0198428    3.33469            0.109667   0.109667 -0.0569514
 H              1.11541  0.0190387    3.28459            0.173837  -0.110801  -0.173837
 H                  2.2  0.0299157    3.27714          1.63855e-10    0.170436   -0.230751
 H              3.28459  0.0190387    3.28459           -0.173837  -0.110801  -0.173837
 H              4.38016  0.0198428    3.33469           -0.109667   0.109667 -0.0569514
 H            0.0190387    1.11541    3.28459           -0.110801   0.173837  -0.173837
 H              1.09844    1.09844    3.30156           0.0852205  0.0852205 -0.0852205
 H                  2.2    1.10238    3.29762          -5.58089e-10     0.107622    -0.107622
 H              3.30156    1.09844    3.30156          -0.0852205  0.0852205 -0.0852205
 H              4.38096    1.11541    3.28459            0.110801   0.173837  -0.173837
 H            0.0299157        2.2    3.27714             0.170436 2.01091e-10   -0.230751
 H              1.10238        2.2    3.29762              0.107622 -6.85255e-10    -0.107622
 H                  2.2        2.2    3.27334          6.73376e-10 8.18632e-10   -0.138184
 H              3.29762        2.2    3.29762             -0.107622 -6.92423e-10    -0.107622
 H              4.37008        2.2    3.27714            -0.170436 2.10171e-10   -0.230751
 H            0.0190387    3.28459    3.28459           -0.110801  -0.173837  -0.173837
 H              1.09844    3.30156    3.30156           0.0852205 -0.0852205 -0.0852205
 H                  2.2    3.29762    3.29762          -5.79516e-10    -0.107622    -0.107622
 H              3.30156    3.30156    3.30156          -0.0852205 -0.0852205 -0.0852205
 H              4.38096    3.28459    3.28459            0.110801  -0.173837  -0.173837
 H            0.0198428    4.38016    3.33469            0.109667  -0.109667 -0.0569514
 H              1.11541    4.38096    3.28459            0.173837   0.110801  -0.173837
 H                  2.2    4.37008    3.27714          1.78225e-10   -0.170436   -0.230751
 H              3.28459    4.38096    3.28459           -0.173837   0.110801  -0.173837
 H              4.38016    4.38016    3.33469           -0.109667  -0.109667 -0.0569514
 H           -0.0400055 -0.0400055    4.44001            0.110651   0.110651  -0.110651
 H              1.06531  0.0198428    4.38016           0.0569514   0.109667  -0.109667
 H                  2.2    0.03598    4.36402          -5.41759e-11     0.162256    -0.162256
 H              3.33469  0.0198428    4.38016          -0.0569514   0.109667  -0.109667
 H              4.44001 -0.0400055    4.44001           -0.110651   0.110651  -0.110651
 H            0.0198428    1.06531    4.38016            0.109667  0.0569514  -0.109667
 H              1.11541    1.11541    4.38096            0.173837   0.173837   0.110801
 H                  2.2    1.12286    4.37008          1.70341e-10    0.230751   -0.170436
 H              3.28459    1.11541    4.38096           -0.173837   0.173837   0.110801
 H              4.38016    1.06531    4.38016           -0.109667  0.0569514  -0.109667
 H              0.03598        2.2    4.36402              0.162256 -6.50809e-11    -0.162256
 H              1.12286        2.2    4.37008             0.230751 2.07361e-10   -0.170436
 H                  2.2        2.2    4.35595          -1.77755e-10 -2.15029e-10    -0.569154
 H              3.27714        2.2    4.37008            -0.230751 2.15073e-10   -0.170436
 H              4.36402        2.2    4.36402             -0.162256 -7.19735e-11    -0.162256
 H            0.0198428    3.33469    4.38016            0.109667 -0.0569514  -0.109667
 H              1.11541    3.28459    4.38096            0.173837  -0.173837   0.110801
 H                  2.2    3.27714    4.37008          1.80717e-10   -0.230751   -0.170436
 H              3.28459    3.28459    4.38096           -0.173837  -0.173837   0.110801
 H              4.38016    3.33469    4.38016           -0.109667 -0.0569514  -0.109667
 H           -0.0400055    4.44001    4.44001            0.110651  -0.110651  -0.110651
 H              1.06531    4.38016    4.38016           0.0569514  -0.109667  -0.109667
 H                  2.2    4.36402    4.36402          -6.14767e-11    -0.162256    -0.162256
 H              3.33469    4.38016    4.38016          -0.0569514  -0.109667  -0.109667
 H              4.44001    4.44001    4.44001           -0.110651  -0.110651  -0.110651
