125

 H             0.823062  -0.635228   0.521078          -0.000505262   0.00334853    -0.155106
 H              1.31536    0.30589   0.467814           -0.196849  0.0812199  -0.186256
 H              2.16372  -0.526921   0.580652          -0.0496826  0.0336913 0.00441914
 H              3.05561   0.304809   0.480103            0.162977   0.175242  -0.106048
 H              3.68505  -0.612485   0.553961          -0.0819717   -0.21303   0.100059
 H             0.396405   0.826483   0.153048           -0.079817  -0.122133  -0.168063
 H              1.30894    1.42199   0.454673            0.235269  0.0520217 -0.0406809
 H              2.20176   0.865331   0.162929          -0.0440976 -0.0597863   0.297319
 H              3.09671    1.41247   0.478636            0.213564 -0.0292773  0.0570053
 H               3.9456   0.833946   0.131761           -0.123337   0.166266   -0.15211
 H             0.399812    1.96916    0.14978            0.052919  -0.135901 -0.0382447
 H              1.29782    2.52961    0.47185            0.197812 0.00738251  -0.352525
 H              2.22301    1.96367   0.154364          -0.00671727    0.116045   -0.183893
 H              3.09719    2.50749   0.484131           -0.208883  -0.167794   0.331364
 H               4.0083     1.9592   0.170397          -0.0407487  -0.140639 -0.0606829
 H                0.419    3.07793   0.140206           -0.307001  -0.127793   0.193234
 H               1.3066    3.62574   0.494369          -0.0068495  -0.359951   0.104572
 H              2.20246    3.07687   0.141731          -0.0938117  -0.195217  0.0460479
 H              3.08306    3.61929   0.514485           0.0127042  0.0787483 0.00524077
 H              4.00743    3.06115   0.185161            0.114485   0.307211  0.0856005
 H             0.384061    4.19028    0.19811          -0.0394879   0.114098  -0.118357
 H              1.30772     4.7262   0.541771            0.158908   0.226011  0.0559844
 H              2.21687    4.19587   0.227819          0.00054952  0.0158476  -0.265838
 H              3.08033    4.75008   0.565213           0.0636828   0.171148   0.210657
 H              3.97644    4.18938   0.188526            -0.124133    0.103359 -0.00597577
 H             0.440393   0.264091    1.12468            0.199833  0.0763697  -0.131935
 H              1.37084  -0.278381    1.40498           0.0339453   0.234015  -0.134354
 H              2.21428   0.347885    1.14864           0.0580087   0.162118   0.129873
 H              3.08365  -0.270025    1.42081            0.071911  -0.136062  0.0690421
 H               3.9988   0.298098    1.08194           -0.123369 -0.0720802  0.0077389
 H             0.404243    1.39119    1.10284           -0.188466     0.1002   0.218056
 H              1.32401   0.870198    1.42769          -0.0601613   0.112669  -0.109106
 H              2.21378    1.41781    1.12626          -0.0845696  -0.043842 -0.0843874
 H              3.09862   0.861849     1.4337           -0.154567 -0.0582308  0.0139123
 H              4.00051    1.40539    1.11866          -0.00547059  -0.0339558   -0.172478
 H             0.395501    2.48839    1.09447            0.242949   0.116525   0.036624
 H              1.29438    1.95806    1.41583             0.12643  -0.171821  0.0542841
 H              2.18387    2.51073    1.10374            0.152051 -0.0283366  0.0487269
 H              3.08493    1.95237    1.43455           0.0975116   0.037931  -0.188784
 H              3.97372    2.50377     1.1309           0.0309109   0.141457 -0.0721867
 H             0.407577    3.61162    1.12333            -0.36399  -0.232187 -0.0300904
 H              1.29584    3.03982    1.45757          -0.0445355   0.224089  -0.203781
 H              2.19088    3.59434    1.15231           0.0287877    0.09739  0.0230761
 H              3.08793    3.04078    1.43903           -0.110085 -0.0660411 -0.0339538
 H              4.00632    3.61866    1.15603            0.141576  0.0447513   0.130031
 H              0.43882    4.74107    1.19678           0.0505962 -0.0792512  -0.121838
 H               1.3087    4.12717    1.46382           -0.223121  0.0765528 -0.0998253
 H               2.2021    4.73159    1.21705           -0.366805  -0.131573   0.120618
 H              3.07049    4.14085     1.4759           0.0541443  0.0487297  0.0325265
 H              3.97641     4.7462    1.18538           0.00363428  -0.0844481 -0.00709186
 H             0.468066  -0.312143    2.06397           -0.140293  0.0734655   0.124458
 H              1.31522   0.301706    2.35329           -0.126596  -0.174542  -0.297637
 H              2.23464  -0.282712     2.0992            0.210662  -0.195683 -0.0466839
 H              3.09667   0.327929    2.35643           0.0340553  0.0349452  0.0398111
 H              3.98249  -0.256115    2.04205            -0.324912  -0.0780033 -0.00895469
 H             0.414378   0.838525    2.06406           0.0632959  -0.270231 0.00470213
 H              1.30241     1.3965    2.38287           0.0566235   -0.12638   0.195722
 H              2.20779   0.866033    2.08418          -0.0924002  0.0011719  0.0473505
 H              3.08112    1.40506    2.39381           -0.170877  -0.200181 -0.0196772
 H              3.99035   0.843291    2.03965           -0.138331 -0.0954804 -0.0795348
 H             0.389217    1.92543    2.05639          -0.0662193  -0.125376  0.0381846
 H              1.28439     2.4853    2.39305              0.1234  -0.129333  -0.126654
 H              2.18857     1.9563    2.05621            0.086986 0.00354811  -0.128764
 H              3.10714    2.47589    2.38019          -0.0356039  0.0206969   0.102345
 H              3.99861     1.9428    2.07651           0.0282691 -0.0676207  -0.169833
 H             0.384454    3.03068    2.08677          0.00742365 -0.0723017  0.0156284
 H              1.29837    3.56762    2.40659           -0.121363   0.389673   0.243729
 H              2.20159    3.01043    2.08636             0.19709  -0.211149 -0.0346355
 H              3.09531      3.568    2.38557            0.086371    0.14094 -0.0149544
 H              4.00752    3.05059    2.08244            0.186642    0.26804  0.0236872
 H             0.412739    4.15318     2.1153           0.0331846  0.0727658  -0.106243
 H              1.33789    4.70516    2.37482          -0.0794397  -0.105593 0.00347976
 H              2.19456    4.10407     2.1265            0.132658  0.0061797   0.178014
 H              3.08024     4.7035    2.39495           -0.106967   -0.07032  0.0681527
 H              3.98417    4.15745      2.117          0.00719774   -0.20739  -0.101813
 H             0.400812   0.288614      2.991             0.185855 0.000257904   -0.168132
 H              1.30612  -0.307683    3.22645            -0.156201    0.292238 -0.00298613
 H              2.19152   0.295268    3.00872           -0.117439  0.0139343 -0.0759411
 H               3.0793   -0.32512    3.22673           0.0685726 -0.0576715  0.0788744
 H              3.99094   0.275148    3.00325            0.166767  0.0812213 -0.0368704
 H             0.405054    1.39276    3.01276           -0.164735   0.250074 -0.0388016
 H              1.29162   0.827082    3.32493           0.0377401  0.0716149   0.046971
 H               2.1934    1.38219    3.02958          -0.0455384 -0.0350296   0.133608
 H              3.07457   0.811594    3.32358            -0.153823 -0.00526945   0.0800874
 H              3.98137    1.37343    3.01694           0.0119458   0.172558  -0.189091
 H             0.380544    2.48064     3.0276          0.000385825   -0.266602    0.129571
 H              1.29722    1.91674    3.33076           -0.138168 -0.0982668  0.0151867
 H              2.18907    2.46457    3.01617           0.0975033   0.132107  0.0327524
 H              3.08942    1.91305    3.34168           0.0844258 -0.0524268   0.122495
 H              3.96714    2.46638    3.01414           0.0923637  0.0616366  0.0466815
 H             0.396176    3.60271    3.05321           0.0107747  0.0849183  0.0328875
 H              1.29334    3.01768    3.33593          -0.0237595  0.0299545   0.115068
 H              2.19714     3.5523    3.04232           0.0100517 0.00574121  -0.114066
 H              3.08512    3.01797    3.34117            0.095185  0.0115754 -0.0596108
 H              4.02151    3.57444    3.03261           -0.114608  -0.182047    0.17908
 H             0.496181    4.75835     3.0849          -0.0304292   -0.10684  -0.266932
 H              1.32167    4.10746    3.32608            0.177853  -0.184514  0.0781794
 H              2.19079    4.70682    3.04502            0.147801   0.188991  -0.065569
 H              3.07664    4.08556    3.30661           -0.0389141 -0.00277383   0.0284741
 H              3.94539    4.72724    3.05107           0.0739782  -0.133045   0.222203
 H             0.416485  -0.350018    3.89216          0.00604164  -0.172744  0.0126051
 H               1.2919   0.222021    4.24602           -0.215174  0.0171374  0.0551441
 H              2.18929  -0.340204    3.90808           0.0716322  -0.096981 -0.0713082
 H              3.05693   0.209831    4.22355           0.0724128   0.160275   0.102492
 H              3.98414    -0.3267     3.9174           -0.112496 -0.0703699 -0.0477779
 H             0.403948   0.806795    3.97517          -0.0334379  -0.162677   0.104532
 H              1.32314     1.3454    4.28595            0.123701 0.00994695    0.15451
 H              2.17843     0.8029    3.96462           0.0170532 -0.0485706   0.281306
 H              3.07272    1.35932    4.29288             0.10959 -0.0798269  -0.099083
 H              3.95664   0.768463    3.96447            0.100166   0.083393   0.416401
 H             0.413706    1.91535    3.98109            0.123442 -0.0124833  0.0839606
 H              1.31198    2.46438    4.30831             0.030154    0.157651 -0.00696644
 H              2.18031     1.9211    3.95649           0.0979338   0.214287  -0.114134
 H              3.08318    2.46134    4.30328           -0.057878 -0.0886278  -0.211735
 H              4.01129    1.88664    3.98338            0.046228 -0.0122411  0.0311866
 H             0.430338    3.02958    3.99396             0.0163083    -0.183364 -0.000632051
 H              1.33274    3.58079    4.29808           -0.120264  0.0150039  -0.195825
 H               2.1929    3.01278    3.96946            0.0185114 -0.00414976    0.106383
 H              3.07964    3.56032    4.30271           0.0853268   0.411906  0.0804376
 H               3.9959    3.00079    3.98994            0.103538 -0.0821349 -0.0334072
 H             0.463347    4.18763    4.02991          -0.00630495    0.254653  -0.0809869
 H              1.49764    5.00458    3.88765            0.234263  0.0308595  0.0255649
 H              2.21897    4.15032     3.9722           -0.264836    0.10192  0.0135478
 H              2.98364    5.05879    3.76737          -0.000693042   -0.0853714   -0.0578449
 H              3.94194    4.14647    4.00504           0.0502062  0.0532451   0.025207
