125

 H            -0.047184  -0.047184  -0.047184          -0.0690885 -0.0690885 -0.0690885
 H              1.06931 0.00777111 0.00777111          -0.0677021  0.0429931  0.0429931
 H                  2.2 0.00186092 0.00186092          -1.11113e-11     0.141738     0.141738
 H              3.33069 0.00777111 0.00777111           0.0677021  0.0429931  0.0429931
 H              4.44718  -0.047184  -0.047184           0.0690885 -0.0690885 -0.0690885
 H           0.00777111    1.06931 0.00777111           0.0429931 -0.0677021  0.0429931
 H              1.09861    1.09861  0.0405668          -0.0745632 -0.0745632  -0.177735
 H                  2.2    1.09864 0.00968436          4.59192e-11  -0.0301033  -0.0984588
 H              3.30139    1.09861  0.0405668           0.0745632 -0.0745632  -0.177735
 H              4.39223    1.06931 0.00777111          -0.0429931 -0.0677021  0.0429931
 H           0.00186092        2.2 0.00186092              0.141738 -1.29915e-11     0.141738
 H              1.09864        2.2 0.00968436           -0.0301033 5.32816e-11  -0.0984588
 H                  2.2        2.2 -0.0206549          -5.79792e-11 -6.59051e-11    0.0210132
 H              3.30136        2.2 0.00968436           0.0301033 5.1079e-11 -0.0984588
 H              4.39814        2.2 0.00186092             -0.141738 -1.23674e-11     0.141738
 H           0.00777111    3.33069 0.00777111           0.0429931  0.0677021  0.0429931
 H              1.09861    3.30139  0.0405668          -0.0745632  0.0745632  -0.177735
 H                  2.2    3.30136 0.00968436          4.54453e-11   0.0301033  -0.0984588
 H              3.30139    3.30139  0.0405668           0.0745632  0.0745632  -0.177735
 H              4.39223    3.33069 0.00777111          -0.0429931  0.0677021  0.0429931
 H            -0.047184    4.44718  -0.047184          -0.0690885  0.0690885 -0.0690885
 H              1.06931    4.39223 0.00777111          -0.0677021 -0.0429931  0.0429931
 H                  2.2    4.39814 0.00186092          -1.10544e-11    -0.141738     0.141738
 H              3.33069    4.39223 0.00777111           0.0677021 -0.0429931  0.0429931
 H              4.44718    4.44718  -0.047184           0.0690885  0.0690885 -0.0690885
 H           0.00777111 0.00777111    1.06931           0.0429931  0.0429931 -0.0677021
 H              1.09861  0.0405668    1.09861          -0.0745632  -0.177735 -0.0745632
 H                  2.2 0.00968436    1.09864          4.53952e-11  -0.0984588  -0.0301033
 H              3.30139  0.0405668    1.09861           0.0745632  -0.177735 -0.0745632
 H              4.39223 0.00777111    1.06931          -0.0429931  0.0429931 -0.0677021
 H            0.0405668    1.09861    1.09861           -0.177735 -0.0745632 -0.0745632
 H              1.13108    1.13108    1.13108           -0.225438  -0.225438  -0.225438
 H                  2.2    1.11323    1.11323          -1.77293e-10   -0.0475106   -0.0475106
 H              3.26892    1.13108    1.13108            0.225438  -0.225438  -0.225438
 H              4.35943    1.09861    1.09861            0.177735 -0.0745632 -0.0745632
 H           0.00968436        2.2    1.09864           -0.0984588 5.39903e-11  -0.0301033
 H              1.11323        2.2    1.11323            -0.0475106 -2.10418e-10   -0.0475106
 H                  2.2        2.2    1.08208          2.01376e-10 2.34397e-10    0.226002
 H              3.28677        2.2    1.11323             0.0475106 -2.02066e-10   -0.0475106
 H              4.39032        2.2    1.09864            0.0984588 5.18795e-11  -0.0301033
 H            0.0405668    3.30139    1.09861           -0.177735  0.0745632 -0.0745632
 H              1.13108    3.26892    1.13108           -0.225438   0.225438  -0.225438
 H                  2.2    3.28677    1.11323          -1.76331e-10    0.0475106   -0.0475106
 H              3.26892    3.26892    1.13108            0.225438   0.225438  -0.225438
 H              4.35943    3.30139    1.09861            0.177735  0.0745632 -0.0745632
 H           0.00777111    4.39223    1.06931           0.0429931 -0.0429931 -0.0677021
 H              1.09861    4.35943    1.09861          -0.0745632   0.177735 -0.0745632
 H                  2.2    4.39032    1.09864          4.57521e-11   0.0984588  -0.0301033
 H              3.30139    4.35943    1.09861           0.0745632   0.177735 -0.0745632
 H              4.39223    4.39223    1.06931          -0.0429931 -0.0429931 -0.0677021
 H           0.00186092 0.00186092        2.2              0.141738     0.141738 -3.99032e-12
 H              1.09864 0.00968436        2.2           -0.0301033  -0.0984588 2.22513e-11
 H                  2.2 -0.0206549        2.2           -5.4684e-11    0.0210132 -3.94219e-11
 H              3.30136 0.00968436        2.2            0.0301033  -0.0984588 3.83574e-11
 H              4.39814 0.00186092        2.2            -0.141738    0.141738 -1.0442e-11
 H           0.00968436    1.09864        2.2           -0.0984588  -0.0301033 2.21038e-11
 H              1.11323    1.11323        2.2            -0.0475106   -0.0475106 -1.03856e-10
 H                  2.2    1.08208        2.2          1.95566e-10    0.226002 1.46712e-10
 H              3.28677    1.11323        2.2             0.0475106   -0.0475106 -1.54367e-10
 H              4.39032    1.09864        2.2            0.0984588  -0.0301033 4.40634e-11
 H           -0.0206549        2.2        2.2             0.0210132 -6.71232e-11 -3.95245e-11
 H              1.08208        2.2        2.2             0.226002 2.39942e-10 1.46845e-10
 H                  2.2        2.2        2.2          -1.82793e-10 -2.20791e-10 -1.57587e-10
 H              3.31792        2.2        2.2            -0.226002 2.33114e-10 1.91673e-10
 H              4.42065        2.2        2.2            -0.0210132 -6.62133e-11  -5.8877e-11
 H           0.00968436    3.30136        2.2           -0.0984588   0.0301033 3.85065e-11
 H              1.11323    3.28677        2.2            -0.0475106    0.0475106 -1.53378e-10
 H                  2.2    3.31792        2.2           1.9822e-10   -0.226002 1.89463e-10
 H              3.28677    3.28677        2.2             0.0475106    0.0475106 -1.81799e-10
 H              4.39032    3.30136        2.2            0.0984588   0.0301033 5.14094e-11
 H           0.00186092    4.39814        2.2              0.141738    -0.141738 -1.03825e-11
 H              1.09864    4.39032        2.2           -0.0301033   0.0984588 4.35986e-11
 H                  2.2    4.42065        2.2          -5.71963e-11   -0.0210132 -5.76695e-11
 H              3.30136    4.39032        2.2            0.0301033   0.0984588 5.11869e-11
 H              4.39814    4.39814        2.2             -0.141738    -0.141738 -1.38202e-11
 H           0.00777111 0.00777111    3.33069           0.0429931  0.0429931  0.0677021
 H              1.09861  0.0405668    3.30139          -0.0745632  -0.177735  0.0745632
 H                  2.2 0.00968436    3.30136          4.49026e-11  -0.0984588   0.0301033
 H              3.30139  0.0405668    3.30139           0.0745632  -0.177735  0.0745632
 H              4.39223 0.00777111    3.33069          -0.0429931  0.0429931  0.0677021
 H            0.0405668    1.09861    3.30139           -0.177735 -0.0745632  0.0745632
 H              1.13108    1.13108    3.26892           -0.225438  -0.225438   0.225438
 H                  2.2    1.11323    3.28677          -1.76615e-10   -0.0475106    0.0475106
 H              3.26892    1.13108    3.26892            0.225438  -0.225438   0.225438
 H              4.35943    1.09861    3.30139            0.177735 -0.0745632  0.0745632
 H           0.00968436        2.2    3.30136           -0.0984588 5.49026e-11   0.0301033
 H              1.11323        2.2    3.28677            -0.0475106 -2.17619e-10    0.0475106
 H                  2.2        2.2    3.31792          2.04418e-10 2.49507e-10   -0.226002
 H              3.28677        2.2    3.28677           0.0475106 -2.203e-10  0.0475106
 H              4.39032        2.2    3.30136           0.0984588  5.912e-11  0.0301033
 H            0.0405668    3.30139    3.30139           -0.177735  0.0745632  0.0745632
 H              1.13108    3.26892    3.26892           -0.225438   0.225438   0.225438
 H                  2.2    3.28677    3.28677          -1.84266e-10    0.0475106    0.0475106
 H              3.26892    3.26892    3.26892            0.225438   0.225438   0.225438
 H              4.35943    3.30139    3.30139            0.177735  0.0745632  0.0745632
 H           0.00777111    4.39223    3.33069           0.0429931 -0.0429931  0.0677021
 H              1.09861    4.35943    3.30139          -0.0745632   0.177735  0.0745632
 H                  2.2    4.39032    3.30136          5.02605e-11   0.0984588   0.0301033
 H              3.30139    4.35943    3.30139           0.0745632   0.177735  0.0745632
 H              4.39223    4.39223    3.33069          -0.0429931 -0.0429931  0.0677021
 H            -0.047184  -0.047184    4.44718          -0.0690885 -0.0690885  0.0690885
 H              1.06931 0.00777111    4.39223          -0.0677021  0.0429931 -0.0429931
 H                  2.2 0.00186092    4.39814          -1.1648e-11    0.141738   -0.141738
 H              3.33069 0.00777111    4.39223           0.0677021  0.0429931 -0.0429931
 H              4.44718  -0.047184    4.44718           0.0690885 -0.0690885  0.0690885
 H           0.00777111    1.06931    4.39223           0.0429931 -0.0677021 -0.0429931
 H              1.09861    1.09861    4.35943          -0.0745632 -0.0745632   0.177735
 H                  2.2    1.09864    4.39032          4.89618e-11  -0.0301033   0.0984588
 H              3.30139    1.09861    4.35943           0.0745632 -0.0745632   0.177735
 H              4.39223    1.06931    4.39223          -0.0429931 -0.0677021 -0.0429931
 H           0.00186092        2.2    4.39814              0.141738 -1.37975e-11    -0.141738
 H              1.09864        2.2    4.39032           -0.0301033 5.90074e-11   0.0984588
 H                  2.2        2.2    4.42065          -6.16081e-11 -7.40111e-11   -0.0210132
 H              3.30136        2.2    4.39032            0.0301033 6.12147e-11   0.0984588
 H              4.39814        2.2    4.39814             -0.141738 -1.60035e-11    -0.141738
 H           0.00777111    3.33069    4.39223           0.0429931  0.0677021 -0.0429931
 H              1.09861    3.30139    4.35943          -0.0745632  0.0745632   0.177735
 H                  2.2    3.30136    4.39032          5.17735e-11   0.0301033   0.0984588
 H              3.30139    3.30139    4.35943           0.0745632  0.0745632   0.177735
 H              4.39223    3.33069    4.39223          -0.0429931  0.0677021 -0.0429931
 H            -0.047184    4.44718    4.44718          -0.0690885  0.0690885  0.0690885
 H              1.06931    4.39223    4.39223          -0.0677021 -0.0429931 -0.0429931
 H                  2.2    4.39814    4.39814          -1.37768e-11    -0.141738    -0.141738
 H              3.33069    4.39223    4.39223           0.0677021 -0.0429931 -0.0429931
 H              4.44718    4.44718    4.44718           0.0690885  0.0690885  0.0690885
