125

 H             0.811687  -0.646344   0.524029           0.0460738 -0.0835165  0.0604308
 H              1.35184   0.316836   0.465275          -0.0745821   0.156693 -0.0746584
 H              2.09705  -0.504331   0.523358          -0.0687258  -0.261255  -0.152526
 H              3.06908   0.262574   0.466882           0.0684321  0.0716544  -0.128505
 H              3.58712  -0.705666   0.585391           0.0336371   0.062788 -0.0155543
 H             0.434257   0.844076   0.135192           0.0125413 -0.0579812   0.113641
 H              1.32387    1.43184   0.460093          -0.0439292   0.296527  -0.163566
 H              2.21394   0.861088   0.127488           0.0109818   0.217619  0.0080462
 H              3.09792    1.39661   0.471574           0.0200917   0.271492  -0.012207
 H              3.99142   0.798334   0.178183           -0.161829  0.0401755  -0.116138
 H              0.40361    1.95825   0.118202           0.0720868   0.124825  0.0417773
 H              1.29158    2.51527   0.504463           0.0893184   0.157393 0.00356463
 H              2.21218    1.96986   0.122867            0.146409 0.00589244 -0.0667274
 H              3.09974    2.53494   0.466096          -0.000406511    0.0107204     0.162713
 H              3.97285    1.93335   0.163459           0.0399423  -0.169501   0.128057
 H             0.369494    3.08501   0.182374           0.0487679   0.261067  -0.262317
 H              1.27584    3.62035   0.499505           0.0327792 -0.0945984 -0.0252302
 H              2.17607    3.05627   0.167856          0.00878744 -0.0118986  -0.116203
 H              3.08705    3.63924   0.492379          -0.0310137 -0.0995639  -0.404006
 H              4.00241    3.08674   0.187487           -0.096509  0.0039705 -0.0045576
 H             0.407569    4.22893   0.233065            0.101501   0.266913 -0.0821824
 H              1.31581    4.74267   0.566749           0.0267854 -0.0737515  0.0549403
 H              2.18171    4.16448    0.15368          -0.0475197  -0.125324  0.0655915
 H              3.08214    4.74325   0.531224           -0.110341 -0.0744293   0.109625
 H              3.97991    4.19006   0.249477            -0.011934    0.219258 -0.00583311
 H             0.421151   0.272975    1.10348           0.0513324  -0.215021    0.18422
 H              1.35982  -0.268688    1.38555            0.201601  -0.222731 -0.0610731
 H              2.21446   0.336952    1.14459           -0.150194  0.0276619   0.301958
 H              3.05205  -0.286174     1.4268           -0.262108  0.0963902   0.164643
 H              3.96383    0.24181    1.13192           0.0579685    0.31976  -0.136336
 H              0.38483    1.39549    1.10049           0.0121057    0.13525 -0.0625709
 H              1.29569   0.857639    1.41524            0.231983  0.0260767 -0.0301811
 H              2.20631    1.41789    1.09955            -0.18322   0.066247  0.0431032
 H              3.11911   0.873146    1.42244            0.133756  -0.242729 -0.0904815
 H              4.01361    1.38016    1.10572           -0.132708 -0.0658158 -0.0748353
 H             0.385921    2.50057    1.11665            0.174255  0.0242014 -0.0352499
 H              1.30071    1.95314    1.43124          0.00285686 -0.0816094  0.0427679
 H              2.19358    2.49914    1.10755            -0.14243 -0.0740994  -0.243468
 H              3.10486    1.94406    1.40747          -0.0703796 -0.0779538  -0.181123
 H              3.98343    2.49618    1.10635           0.0264317  0.0413096  0.0334435
 H             0.396977    3.61753    1.16154           0.0470669  0.0414135  0.0323384
 H              1.30409    3.04388    1.44801           0.0950945 -0.0195824  0.0363385
 H              2.18832    3.61106    1.11896          -0.0705959 -0.0278411 -0.0713604
 H              3.09752    3.04804    1.42533          -0.00995633    0.170146  -0.0927588
 H              4.01516    3.60594    1.16179          -0.0365882  -0.193003 -0.0383606
 H             0.412525    4.74162    1.21715            -0.10989   0.046395   0.123054
 H              1.30944    4.13145    1.47937          -0.0593713  -0.167363 -0.0533184
 H              2.20623    4.74018    1.19366          -0.0204624   0.313385  -0.121215
 H              3.08146     4.1516     1.4492           -0.143606   0.152457  0.0128763
 H              3.97731    4.73779    1.20818          -0.0794378 -0.0757398   0.100436
 H             0.445979  -0.298436    2.05399           0.0580633 0.00828809  0.0140196
 H              1.30781    0.30114    2.33849           0.0449325   0.130399 -0.0900146
 H              2.19748  -0.260007    2.07592           0.0903561  0.0954126    0.26369
 H              3.09201   0.308122    2.34505           0.0639264  -0.262561 -0.0149378
 H              3.94835  -0.308205    2.09354           0.0349881  -0.151474  0.0882199
 H             0.388593   0.812984    2.03532            0.0326631   -0.155388 0.000282647
 H              1.30153    1.39227    2.35492             -0.0233 -0.0699872  0.0405835
 H              2.21976   0.865386    2.05717           0.0421045  0.0305925 0.00706214
 H               3.1243    1.40804    2.38461           -0.151121   0.050278   0.242232
 H              4.02764   0.838134    2.05088          -0.0204177  -0.110363  0.0896386
 H              0.38683    1.93446    2.07064          -0.0601656   0.142518  -0.166928
 H              1.30164    2.47492    2.38845            -0.13966   0.178267  0.0752032
 H              2.21628    1.94113    2.05309          -0.0639278  0.0821324  0.0918652
 H              3.11469    2.49931    2.36584          -0.0592823  0.0222366  0.0238352
 H              4.02126    1.93402    2.05541           0.0984159 -0.0101988  0.0515641
 H             0.416575    3.02277    2.08049            -0.02784  -0.190769 -0.0347928
 H              1.31024    3.55769    2.40195            0.147006  -0.306454  0.0497216
 H              2.20164    3.02177    2.06113            0.0904303    0.021115 -1.8348e-06
 H              3.09682    3.57555    2.38124             -0.17166   -0.149154 -0.00947778
 H              4.01465    3.03228     2.1003             0.19019 0.00778302  -0.272869
 H             0.441271    4.12888    2.14491          -0.0662031   -0.20473 -0.0828714
 H               1.3489    4.72578    2.39632          -0.0080534  0.0674543   0.190277
 H              2.20201     4.1215    2.10947            0.223334  -0.141193  -0.264123
 H              3.08195    4.69627    2.38512            0.0336642  -0.0181273 -0.00219719
 H              3.98397    4.15478    2.12084           -0.142977 -0.0742749 -0.0722076
 H             0.425458   0.273212     2.9928          0.00529645  0.0448301 -0.0859716
 H              1.28677   -0.30871    3.24936          -0.0803511  -0.154493 -0.0231608
 H              2.19165   0.311604    2.99242             0.026773   -0.164709 -0.00534587
 H              3.06791  -0.287963    3.25029           0.0492063 -0.0925629   0.178829
 H              3.99648   0.283012    3.01435           0.0317187   0.200805 -0.0883769
 H             0.412093    1.36272    2.99245          0.00297278  -0.029438  -0.090412
 H              1.32138   0.832394    3.30946          -0.0608702  -0.407845   0.147478
 H               2.1971    1.38873    3.01383           -0.330516  -0.297343  -0.176692
 H              3.09351   0.827845    3.30092           0.0873335  0.0364193  0.0119822
 H              4.00192    1.38051    3.02863           0.0591275   0.101708   0.127946
 H             0.389907    2.45389    3.02912           -0.143884   0.177764  -0.227981
 H              1.29902    1.92254    3.33248          -0.0419158 0.00461969  -0.180121
 H              2.20999    2.48147     3.0075            0.151021   -0.01385   0.187252
 H              3.09745    1.94041    3.33936            0.085361 -0.0393578   0.055749
 H              4.01154    2.48546    3.03232           -0.0374483 -0.00251812   0.0707806
 H             0.397913    3.56434    3.05746           -0.245296  -0.229342   0.228591
 H              1.28331    3.00223    3.33981             0.0622025   -0.0943134 -0.000728319
 H              2.21359    3.57181    3.03444           0.0573077   0.300879   0.001687
 H              3.10306    3.01697    3.34778           0.0448766 -0.0890187 0.00062896
 H              3.99476    3.59904    3.06277           -0.0851778 -0.00117909  -0.0819552
 H              0.46185    4.71319    3.08277           0.0887564 -0.0960214 -0.0699703
 H              1.32183    4.08495    3.33005           -0.215578    0.19502   0.179096
 H              2.20925    4.69793    3.06397            0.132364   0.148879  -0.158073
 H              3.07806    4.10135    3.31675           0.0527366  0.0898589  0.0152451
 H              3.92639    4.76983     3.0902           -0.141454  -0.121724   0.101598
 H             0.399315  -0.298665     3.9159            0.0149573 -0.00165339   -0.107224
 H              1.30923   0.258801    4.24724           0.0660984  0.0603993 -0.0710491
 H              2.19723  -0.298755     3.9122           -0.125843  -0.113545   0.114467
 H              3.09751   0.238449    4.26336           0.0121603  0.0629827   0.118967
 H              3.96884  -0.316069    3.91461          -0.0533269  -0.255063   0.111954
 H             0.411024   0.797119    3.95051            0.177348   0.148214  0.0900345
 H              1.30458    1.36389    4.26102           0.0875712     0.1029  0.0455358
 H              2.20404   0.821733    3.94374           -0.252316   0.272718   0.017247
 H              3.09714    1.35665    4.29129             0.126226    0.127966 -0.00802659
 H              3.98188   0.811153    3.97893          -0.0182182 -0.0616368 -0.0207745
 H             0.386126     1.8981    3.97155          -0.0792701  -0.215096  0.0479322
 H              1.31365    2.45396    4.29688           0.0518561  0.0581161 -0.0586669
 H              2.21239    1.92796    3.97552           0.0718294 -0.0630156  0.0226432
 H              3.08922    2.46838    4.27953           -0.190571  -0.279697   0.152919
 H              3.99079    1.92683    3.98473          -0.0637946    0.13375  0.0117691
 H             0.425427    3.02422     4.0151           0.0505619  0.0588064   0.114212
 H              1.34915    3.56797    4.31787           -0.163251  0.0606729 -0.0321974
 H              2.20063    3.03417    3.96595          -0.0085533  0.0712563  -0.145453
 H               3.0641    3.59406    4.30195            0.188203   0.209639  0.0827751
 H              3.98225    3.02898    3.98389           0.0449228  0.0451694  0.0166908
 H              0.46411    4.12966    4.02406            0.142401 -0.0763685  0.0991067
 H              1.36091    5.04134    3.79613           0.0980811 -0.0051795 -0.0936264
 H              2.20387    4.14614    4.00177           0.0660998  0.0163095   0.270703
 H              3.03446    4.94531    3.92347           0.0652926   0.118649 -0.0566096
 H              3.94321    4.16226    4.02183            0.246653 -0.0475355  0.0398007
