125

 H             0.829391   -0.64814   0.518416           -0.109554 -0.0390532 -0.0325373
 H              1.36683   0.299386   0.439339          -0.00961572   -0.123006   -0.163301
 H              2.19307  -0.538348   0.579775          0.00617421  -0.114087   0.164719
 H              3.07873   0.317275   0.476517            0.105164   0.043617   0.161599
 H              3.54326  -0.648155   0.507886            0.108327  -0.101191 -0.0726598
 H             0.444021   0.830725   0.142666          -0.0233596   0.217027 -0.0729181
 H              1.33331    1.38302   0.485381           -0.330174  -0.126057  -0.092285
 H              2.22718   0.873944   0.128998            -0.18968  0.0534917   0.163614
 H              3.09253    1.44363   0.493134            0.104355 -0.0255174  0.0772313
 H              3.98128    0.84568   0.178295           -0.0278626   0.0305587 -0.00089172
 H             0.453961    1.93635   0.123457           0.0526288 -0.0612432   0.150298
 H              1.31601     2.5247    0.48691            0.174129   0.160566  -0.192187
 H              2.21565    1.97849   0.135502          -0.0131692 -0.0782245  0.0440129
 H               3.0869    2.53401   0.501444           0.0254829    0.18964 -0.0711164
 H               3.9794    1.97905   0.141606           0.0768507  -0.131555  -0.229605
 H             0.409272    3.07661   0.154644           0.0925097  0.0480173  0.0260367
 H              1.28607    3.63126   0.487724           0.0144252 -0.0936812  -0.045109
 H              2.19784    3.08764    0.14922          -0.0735997   0.282173   0.107336
 H              3.08777    3.63423   0.511188            0.127344 -0.0116498  -0.103326
 H              4.00333    3.08865   0.178638          -0.0136344   0.116156   -0.10133
 H             0.374089    4.18029   0.209585           -0.280506    0.03255  0.0143412
 H              1.27422    4.72638   0.553176           -0.0642915 -0.00723572   0.0858015
 H              2.17576    4.19375   0.198878           0.0773291 -0.0317471  0.0565414
 H               3.0833    4.74851   0.528079           -0.160545  0.0427509  -0.142386
 H               3.9842    4.22178   0.224567           0.0677474   -0.14531   0.189903
 H             0.421134   0.288609     1.0789            0.184689   0.089152   0.192302
 H               1.3531   -0.26439     1.3772            0.156282 0.00530587   0.110448
 H              2.20899    0.36301    1.13293           0.0246075 -0.0423554  0.0122274
 H              3.02565  -0.280594    1.41119            0.186584  -0.219682  0.0391201
 H              3.98358    0.22322     1.1213           0.0821375  -0.267091  -0.135085
 H             0.421188    1.39629    1.08258          -0.0048723  0.0571841 -0.0784457
 H              1.32163   0.870423    1.42391          -0.00255896   0.0137038  0.00712588
 H              2.21717    1.43978    1.11755            0.283087  -0.146912 -0.0912483
 H              3.11069   0.854095    1.41987            0.278934   0.405354 -0.0197012
 H              4.00677    1.38019    1.11195              0.1213  0.0223786 0.00827173
 H             0.397668    2.47088    1.10975          -0.0623675   0.200501  -0.149822
 H               1.3058    1.95379    1.42736            0.128815 -0.0185023  -0.242149
 H              2.19377      2.513     1.1148          -0.0131233  -0.135934  -0.071595
 H              3.10016    1.95801     1.4515            0.166817   0.106047  0.0493344
 H              3.98294    2.51059    1.13589           -0.160026   0.151181  -0.153795
 H              0.38768    3.57452    1.13769          0.00947389  -0.176732 -0.0719248
 H              1.29971    3.04075    1.44226           0.0660046  -0.110876    -0.1736
 H              2.19724    3.60896    1.11974          -0.0928387  -0.127554 -0.0701024
 H              3.08984    3.05137    1.45025          -0.0950136  -0.118423   0.148557
 H               3.9898    3.62275    1.14508            0.204805  0.0367005  -0.168526
 H             0.393608    4.69909    1.19109          -0.00158901   -0.127491   0.0686191
 H              1.28802    4.12356    1.46268           0.0720895  0.0878894   0.274758
 H               2.1821    4.72377     1.1632           -0.178063 -0.0424685    0.15268
 H              3.08009     4.1501     1.4533            0.152217  -0.073731   0.249153
 H              3.95245    4.76787     1.2275           -0.254774 -0.0705981   0.142768
 H             0.450266  -0.267216    2.03586           -0.112911 -0.0413909 -0.0841303
 H               1.3094   0.331764    2.34571          -0.00872779   -0.093699   0.0825828
 H              2.16842  -0.269398    2.08012          -0.0269141   0.300521  0.0598572
 H              3.08626   0.292076    2.35216            0.024936  -0.153348  0.0425404
 H              3.88193  -0.361024     2.0896           -0.131054  -0.241769    0.23142
 H             0.391264   0.835905    2.04059           -0.124448  0.0501765  -0.116054
 H              1.29661     1.4114    2.37133           -0.0775868 -0.00736569   0.0475907
 H              2.20191   0.858849    2.07155            0.147999  -0.238116  -0.203822
 H              3.11756    1.38197    2.38239           0.0814134  -0.114636 -0.0175801
 H              4.00328   0.802872     2.0601          -0.0236918  0.0209232  0.0723188
 H             0.404962    1.92246    2.04956          -0.0411619  0.0113708  0.0199241
 H              1.30114    2.48399     2.3971           0.0704553 0.00623725  0.0754872
 H              2.20034    1.95108     2.0566           -0.100412 -0.0236845  -0.070651
 H              3.10016    2.47752    2.39555          -0.000349749    -0.148512   -0.0630482
 H              4.02217    1.93946    2.08039            0.274566 -0.0198564  -0.257456
 H             0.386243    3.02398    2.07232          -0.0963628  0.0928889   0.156284
 H              1.28888     3.5729    2.39145            0.276847   0.181415  0.0312237
 H              2.18811    3.03808    2.07957           -0.101902  0.0425096  -0.103889
 H              3.09792    3.56828    2.38568            -0.128096 -0.00756769   0.0102733
 H              4.01564    3.02972    2.07459           -0.133287  -0.132512   0.120781
 H             0.397545    4.13476    2.12053            0.140159 -0.0942377   0.104837
 H              1.31502    4.69106    2.39714          -0.0531828 -0.0954115   0.260636
 H              2.19926    4.10978    2.08893            0.0353725    0.145628 -0.00220454
 H              3.07656     4.6865    2.40014             0.14788   -0.13029  0.0896169
 H              3.98986    4.12591    2.11511          -0.0230129  0.0205164   0.112623
 H             0.393218   0.306369    2.98932          -0.0414279  0.0806573 -0.0313947
 H              1.30609  -0.265022    3.27559            0.095329  -0.174322  0.0627561
 H               2.1998   0.294963    2.99545            0.117119 -0.0634807 -0.0185227
 H              3.07748  -0.280044    3.26192          -0.0643937 -0.0804971  0.0369544
 H              4.01397   0.253235    2.99007           -0.282338   0.175509  -0.214109
 H             0.409003    1.38537    3.01006           -0.159631  -0.185363   0.166724
 H              1.30991   0.826518    3.30858           -0.241033   0.161969 -0.0616615
 H              2.20547    1.39693    3.00449           0.0570844   0.218608  -0.131131
 H              3.10823   0.823379    3.32004           -0.152382   0.119556  -0.014011
 H              4.01775    1.36491    3.00505            0.184699    0.24712  -0.199982
 H             0.402903    2.49432    3.03689           0.0818719 -0.0885077 -0.0188827
 H              1.30332    1.91189    3.33565            0.132138    0.16029 -0.0410468
 H              2.20413    2.47001    3.03369           -0.115655  0.0497868   0.164844
 H              3.10666    1.91447    3.33106           0.0364414    0.15495  -0.136377
 H              3.99882    2.48075    3.04872           -0.029017 -0.0629288 0.00697897
 H             0.397793    3.59142    3.07468            0.123612  -0.144212  -0.052865
 H              1.31878    3.01148    3.33951           -0.146524   0.113239  -0.154495
 H              2.20052    3.53428    3.04427            0.076088  -0.122476   0.102507
 H              3.09696    2.98723    3.34649          -0.0534855 -0.0733188  -0.158775
 H              3.99817    3.58095     3.0478           0.0804527  0.0221664  0.0449912
 H             0.463414    4.71199    3.07447           -0.156805 -0.0808621   0.130982
 H              1.30844    4.09067    3.33454           -0.118547  0.0159969 0.00995729
 H               2.2088    4.65395    3.04675           -0.112661  0.0585354  0.0114366
 H              3.09125    4.07262    3.33038           0.0189904  0.0205245  -0.068702
 H              3.94574     4.7012    3.06209            0.251145 -0.0866827  -0.180614
 H             0.405139  -0.265283    3.93959           -0.117941  0.0225476  -0.215194
 H              1.30211   0.252782    4.24919           -0.301059   0.104277   0.214429
 H              2.18645  -0.323833    3.90845          -0.0998184  0.0876381  0.0738333
 H              3.07087   0.241951    4.24606          -0.0118809  0.0111635    0.14993
 H              3.98956  -0.311009    3.92545           -0.078836 -0.0803984   0.123432
 H             0.407559   0.847606    3.94866            0.223129  0.0615606   0.143605
 H               1.3071    1.35438    4.28012           0.0691712   0.214526 -0.0880175
 H              2.19344    0.81533    3.93696           -0.220091 -0.0101848   0.138562
 H              3.09327    1.35356    4.29951          -0.0961724   0.055794  -0.143925
 H              3.99433   0.801554    3.94255          0.00977507   0.156144    0.21009
 H              0.39069    1.92634    3.98649          0.00492353 -0.0111723   -0.06178
 H              1.32188    2.46398    4.31573            0.109795  -0.167773  -0.185767
 H              2.20541    1.92092    3.96989           0.0416182   0.137317   0.075159
 H              3.09098    2.46061    4.29001           0.0270902 -0.0139526  0.0214114
 H              4.02876    1.91653    3.98162          -0.00618507  -0.0443485   -0.307928
 H             0.435998    3.03953    4.01353          -0.0362262   0.110188   0.174805
 H              1.33297    3.56692    4.31572          0.00437623    -0.3123  -0.168035
 H              2.20983    3.01319    3.98756          -0.0483839  -0.196928   -0.11031
 H              3.07839    3.57545    4.31361           -0.115924  0.0948473 -0.0287283
 H              3.99429     3.0497    4.03529             0.26262  0.0196035 -0.0855203
 H             0.433607    4.18225    4.03488           0.0672731   0.140384   0.112205
 H               1.4985    5.02046    3.84077              -0.211 -0.0961314   0.130748
 H              2.21134    4.12046    3.99412           0.0245526   0.178635  -0.143632
 H              2.93042    4.99486    3.81479          -0.0760467  0.0850947   0.127021
 H               3.9816    4.15486    4.00334          -0.0114464  0.0633811  0.0377321
