125

 H             0.808745   -0.67049   0.530586          -0.0421481  0.0860431 -0.0616899
 H              1.31581   0.298224   0.487221            0.019409  0.0789333   0.180736
 H              2.05622  -0.546409   0.536837           0.0498303 -0.0666784  -0.174895
 H              3.05969   0.277384   0.451845            0.0655203 -0.00962591    0.118952
 H              3.67534  -0.657207   0.572064           -0.217245 -0.0620182 -0.0527584
 H              0.45613   0.830344    0.13344            0.199532 -0.0274762  -0.370792
 H              1.32936    1.40408   0.470585           -0.217911  0.0051453  -0.059138
 H              2.22556   0.867875   0.152064            0.195014   0.142529  -0.101894
 H               3.0955    1.42011   0.473126            0.156174   0.228318   -0.14555
 H              3.96801   0.823977   0.139363           -0.244623    0.14154  0.0425673
 H             0.431972    1.93695   0.120933          -0.0560617  0.0899173 -0.0574601
 H              1.31814     2.5119   0.460088           -0.010537  0.0767305   0.166962
 H              2.21805    1.96402   0.132286          -0.0373805    0.09662 -0.0139188
 H              3.10437     2.5234   0.483681          -0.0205838  -0.132361  0.0373971
 H              4.00882    1.94364   0.158979           0.0677615 -0.0876741  0.0611866
 H             0.405267    3.07012   0.179845          -0.0481071  -0.221058 -0.0960734
 H              1.28861    3.61731   0.503551            0.308676 -0.0815132 -0.0386179
 H              2.20853    3.07531   0.142058             0.20908  -0.254567  0.0685354
 H              3.09577    3.61523   0.498545          0.00116525  -0.152101   0.207688
 H              4.01358    3.08092   0.191565           -0.212761    0.20136  -0.194381
 H              0.36346    4.18566    0.19455           -0.151939  -0.147208  0.0495337
 H              1.30388      4.728   0.509181           -0.136696   0.176409  -0.133983
 H              2.19184    4.16949   0.200683            0.115163  0.0210073  0.0519013
 H               3.0532    4.70921   0.554298          -0.0911926  -0.039389 -0.0244187
 H              3.98665    4.19596   0.199709          0.00807826 -0.0298913   0.146292
 H             0.402352   0.261246    1.07977           -0.111964  -0.105792  -0.153581
 H              1.35568   -0.29578    1.39664            0.250856  -0.112478   0.248149
 H              2.20747   0.340293    1.13522           0.0641637   0.123471  -0.127579
 H              3.06147  -0.247989    1.40942           0.0118878  0.0867229  0.0373258
 H              3.96713   0.288439    1.09433           -0.116244  0.0297921   0.222072
 H             0.416803    1.38295    1.09542          0.00689429    0.13139   0.072832
 H              1.30517   0.841116    1.41521           -0.100891  0.0822677  -0.106038
 H              2.18676    1.43013    1.10959          -0.0804148 -0.0138764  0.0961003
 H              3.09128    0.87681    1.41345           -0.182597  -0.150512  0.0670149
 H              4.00084    1.39659    1.12916          0.00684502   0.118422 -0.0131257
 H             0.399648    2.47854    1.10824          -0.0125735  0.0681863   0.134651
 H               1.2989    1.93911    1.42614          -0.0639094  0.0128932   0.184611
 H              2.19872    2.50821    1.08607           -0.011141  -0.122311 -0.0655814
 H              3.08107    1.95039    1.43038             0.0248403    -0.187003 -0.000898295
 H              3.99141    2.48616    1.13403            0.127751  -0.050345  -0.185587
 H             0.367551    3.60862    1.13666           0.0961854  0.0901014 -0.0834946
 H              1.29094    3.04301    1.43778            0.127135   -0.11687  -0.294952
 H              2.19134    3.60301    1.14315          -0.0628994   0.169016 0.00218433
 H              3.09768    3.04119    1.43747          -0.00843866  0.00933758    0.313537
 H              4.00032     3.6098    1.14524           0.0135129  -0.153614   0.066863
 H             0.410462    4.72363    1.17986          -0.0351549  0.0414003 -0.0515966
 H              1.30338    4.14447    1.45988          -0.0792765    0.17502  0.0690768
 H               2.1797    4.72762    1.21997          -0.0335552   0.124121   0.141816
 H              3.08611    4.13204    1.45759           -0.120733  0.0662708   0.133945
 H              3.92251    4.74925    1.20673          -0.0498509  0.0980764  0.0594472
 H              0.44266  -0.270951    2.03543          -0.0684068 -0.0231521  0.0165918
 H              1.31463   0.290769    2.34487          0.00732164  0.0325707   0.097507
 H               2.2109  -0.271346    2.08479           0.0998245  -0.142019  0.0106978
 H              3.09635   0.321505    2.35088            0.158975 0.00331676 0.00528706
 H                3.979  -0.275669    2.05418            -0.17803 -0.0339434 -0.0852891
 H             0.388084   0.827151     2.0337           0.0765211  0.0982899  0.0985002
 H               1.2991    1.39352      2.364            0.122818  0.0707455  -0.121042
 H              2.20439   0.865955    2.07533           0.0868881 -0.0432115 -0.0347686
 H               3.1056    1.40818    2.37396           0.00581606 0.000971193   -0.360227
 H              3.97785   0.837629    2.04265          -0.0504638 -0.0854332  0.0476428
 H             0.377972    1.93425    2.05852           0.0163835 -0.0498126   0.138098
 H              1.27649    2.47253    2.38474            0.130586   0.112938 -0.0128624
 H              2.19562    1.94549    2.05914            0.115696  0.0426896   0.195666
 H              3.08765    2.48527    2.38789            0.284463  -0.150091   0.222206
 H              4.00405    1.93248     2.0805          -0.0537702  -0.216137   0.213152
 H             0.393702    3.04105    2.07185            -0.155543  -0.0389845 -0.00167369
 H              1.29085    3.56729    2.37749          0.000903831    0.134522  -0.0930737
 H              2.18303    3.01925    2.07226           -0.148432   0.102667   -0.20314
 H              3.09971    3.55361    2.39494           0.0144498  0.0538259  -0.065169
 H              3.99574     3.0344    2.08319            -0.16853  0.0816677   0.032204
 H             0.421316    4.17598    2.12607           -0.178744  -0.200446  -0.194133
 H              1.35117    4.69855    2.40293           -0.168031  0.0816196 -0.0121522
 H              2.20904    4.11006    2.09991            0.192058 -0.0300497 -0.0167337
 H              3.08603    4.69156    2.39576          -0.0617404   0.177851  -0.346519
 H              3.97661    4.13352     2.1154            0.039178  0.0616825 -0.0656396
 H             0.400981   0.289671    2.99108           0.0866394 -0.0298905  0.0807966
 H              1.30934  -0.267865    3.25788           -0.290575 -0.0550093  -0.113334
 H               2.2008   0.302669    2.99014            0.239398 0.00305387  -0.168704
 H              3.10457  -0.279547    3.25142           0.0382217 0.00402331   0.231002
 H              4.01802   0.292408    2.99061          -0.0217025   0.188941   0.101867
 H             0.399848    1.39074    2.99013           0.0742996  0.0891029   0.165443
 H              1.29525   0.853353    3.29489           0.0302496  -0.115923  -0.260239
 H              2.20292    1.38249    3.01869           0.0899578 -0.0114515  -0.117843
 H              3.10778   0.832367     3.3163            0.103643   0.187583  -0.125011
 H              3.99743    1.37958    3.01297            0.127054 -0.0179805  0.0281115
 H             0.380498     2.5053    3.01987            -0.279328    0.130154 -0.00881303
 H              1.30464    1.92512    3.33481           -0.265007 -0.0303491   0.075044
 H              2.20382    2.45738    3.00603             0.19187 -0.0835668 -0.0258097
 H              3.09802    1.91751    3.33995            0.187336  -0.260174   0.160841
 H               3.9951    2.48042    3.01716           0.0828024  -0.337575  -0.145394
 H              0.40944    3.60848     3.0668            0.121776   0.021625  -0.148625
 H              1.31537    3.00642     3.3469            0.158843 -0.0665369  0.0249987
 H              2.21727    3.55161    3.02893            0.116751  0.0427251   0.018075
 H              3.10129    3.00704    3.35538          0.00964837 -0.0506727  0.0416915
 H              4.01493    3.57599    3.05669          -0.00769788    0.180289   0.0628234
 H             0.529855    4.76047    3.11347           -0.213062 -0.0464267   0.208618
 H              1.34013    4.07925    3.32006            0.049896  0.0166284   0.130068
 H              2.22123    4.72193    3.05782             0.090286   -0.114036 -0.00712694
 H              3.09563    4.07985    3.32983          0.00652559 -0.0389111  -0.163543
 H               3.9603     4.7025    3.06673           -0.456928  -0.258409    0.07373
 H             0.424202  -0.317923    3.93583             0.16123   0.268544   0.112627
 H               1.2978   0.268359     4.2452           -0.249129 -0.0913845   0.149584
 H              2.18851  -0.302294     3.9066            -0.16456 -0.0667659  0.0671548
 H              3.10284   0.237376    4.26149           -0.137447   0.149336 -0.0165233
 H              3.97926  -0.299364    3.92175           0.0328097    0.05574 -0.0827274
 H             0.403038   0.837013    3.95103          -0.0397186   0.183954  -0.102571
 H               1.3055    1.36281    4.29708           0.0350416  0.0579937 -0.0844937
 H              2.20387   0.824042    3.95654          -0.00754297   0.0211007   0.0221825
 H              3.07367    1.37881    4.28773           0.0567346   0.170944  -0.162836
 H              3.99959   0.834644    3.95606          -0.0477092   0.147816  0.0499532
 H             0.419347     1.9422    3.96325           0.0835345  0.0184585  0.0905306
 H              1.29718    2.47275    4.29251            0.0548747   0.0189369 -0.00261796
 H              2.20249    1.91596    3.95556            0.149602 -0.0499217 -0.0643131
 H              3.10615    2.47102    4.34739           0.0812951 -0.0938688  0.0034978
 H              3.99873    1.94662    3.95792          -0.0482169  -0.113098   0.240936
 H             0.392668     3.0472    4.01369           -0.103727   0.330473  0.0173586
 H              1.33489    3.54751    4.31111             0.16299   0.107009  0.0643131
 H              2.20777    3.01982    3.97275            0.098635  -0.167596  0.0271185
 H               3.0626    3.57982    4.31869            0.117871 -0.0814734  0.0392004
 H              3.98357    3.04504    4.02411           -0.123704  0.0459207   -0.18393
 H             0.463852    4.17505    4.01472            0.102263  -0.101213   0.165717
 H              1.43945    4.95373    3.90347           -0.099232  -0.299942  -0.218958
 H              2.18335    4.13412    3.97798          -0.0809103  -0.353172  0.0448702
 H              2.98373    4.90755    3.98672           0.0437801   0.022783 -0.0361582
 H              3.95678     4.1471    4.03146          -0.0384985 -0.0165474 -0.0970831
