125

 H           0.00502488 0.00502488 0.00502488           0.0389994  0.0389994  0.0389994
 H              1.10415  0.0239487  0.0239487           0.0164987   0.159285   0.159285
 H                  2.2    0.02465    0.02465          1.27997e-15    0.161765    0.161765
 H              3.29585  0.0239487  0.0239487          -0.0164987   0.159285   0.159285
 H              4.39498 0.00502488 0.00502488          -0.0389994  0.0389994  0.0389994
 H            0.0239487    1.10415  0.0239487            0.159285  0.0164987   0.159285
 H              1.11106    1.11106  0.0460589            0.107742   0.107742   0.295521
 H                  2.2    1.11126  0.0468785          -3.52398e-15     0.108617     0.297229
 H              3.28894    1.11106  0.0460589           -0.107742   0.107742   0.295521
 H              4.37605    1.10415  0.0239487           -0.159285  0.0164987   0.159285
 H              0.02465        2.2    0.02465             0.161765 1.27761e-15    0.161765
 H              1.11126        2.2  0.0468785              0.108617 -3.54057e-15     0.297229
 H                  2.2        2.2  0.0477122          7.53819e-16 7.50895e-16    0.298817
 H              3.28874        2.2  0.0468785             -0.108617 -3.47138e-15     0.297229
 H              4.37535        2.2    0.02465           -0.161765 1.2808e-15   0.161765
 H            0.0239487    3.29585  0.0239487            0.159285 -0.0164987   0.159285
 H              1.11106    3.28894  0.0460589            0.107742  -0.107742   0.295521
 H                  2.2    3.28874  0.0468785          -3.46468e-15    -0.108617     0.297229
 H              3.28894    3.28894  0.0460589           -0.107742  -0.107742   0.295521
 H              4.37605    3.29585  0.0239487           -0.159285 -0.0164987   0.159285
 H           0.00502488    4.39498 0.00502488           0.0389994 -0.0389994  0.0389994
 H              1.10415    4.37605  0.0239487           0.0164987  -0.159285   0.159285
 H                  2.2    4.37535    0.02465          1.24763e-15   -0.161765    0.161765
 H              3.29585    4.37605  0.0239487          -0.0164987  -0.159285   0.159285
 H              4.39498    4.39498 0.00502488          -0.0389994 -0.0389994  0.0389994
 H            0.0239487  0.0239487    1.10415            0.159285   0.159285  0.0164987
 H              1.11106  0.0460589    1.11106            0.107742   0.295521   0.107742
 H                  2.2  0.0468785    1.11126          -3.61021e-15     0.297229     0.108617
 H              3.28894  0.0460589    1.11106           -0.107742   0.295521   0.107742
 H              4.37605  0.0239487    1.10415           -0.159285   0.159285  0.0164987
 H            0.0460589    1.11106    1.11106            0.295521   0.107742   0.107742
 H              1.12018    1.12018    1.12018            0.231026   0.231026   0.231026
 H                  2.2    1.12047    1.12047          4.69654e-15    0.232566    0.232566
 H              3.27982    1.12018    1.12018           -0.231026   0.231026   0.231026
 H              4.35394    1.11106    1.11106           -0.295521   0.107742   0.107742
 H            0.0468785        2.2    1.11126              0.297229 -3.62346e-15     0.108617
 H              1.12047        2.2    1.12047             0.232566 4.70104e-15    0.232566
 H                  2.2        2.2    1.12077          2.58825e-15 2.59726e-15    0.234181
 H              3.27953        2.2    1.12047           -0.232566  4.711e-15   0.232566
 H              4.35312        2.2    1.11126             -0.297229 -3.50353e-15     0.108617
 H            0.0460589    3.28894    1.11106            0.295521  -0.107742   0.107742
 H              1.12018    3.27982    1.12018            0.231026  -0.231026   0.231026
 H                  2.2    3.27953    1.12047          4.69377e-15   -0.232566    0.232566
 H              3.27982    3.27982    1.12018           -0.231026  -0.231026   0.231026
 H              4.35394    3.28894    1.11106           -0.295521  -0.107742   0.107742
 H            0.0239487    4.37605    1.10415            0.159285  -0.159285  0.0164987
 H              1.11106    4.35394    1.11106            0.107742  -0.295521   0.107742
 H                  2.2    4.35312    1.11126          -3.51528e-15    -0.297229     0.108617
 H              3.28894    4.35394    1.11106           -0.107742  -0.295521   0.107742
 H              4.37605    4.37605    1.10415           -0.159285  -0.159285  0.0164987
 H              0.02465    0.02465        2.2             0.161765    0.161765 1.27952e-15
 H              1.11126  0.0468785        2.2              0.108617     0.297229 -3.56079e-15
 H                  2.2  0.0477122        2.2          7.39153e-16    0.298817 6.92663e-16
 H              3.28874  0.0468785        2.2             -0.108617     0.297229 -3.54086e-15
 H              4.37535    0.02465        2.2            -0.161765    0.161765 1.22517e-15
 H            0.0468785    1.11126        2.2              0.297229     0.108617 -3.53696e-15
 H              1.12047    1.12047        2.2             0.232566    0.232566 5.33187e-15
 H                  2.2    1.12077        2.2          2.59586e-15    0.234181 3.30562e-15
 H              3.27953    1.12047        2.2            -0.232566    0.232566 5.31745e-15
 H              4.35312    1.11126        2.2             -0.297229     0.108617 -3.63615e-15
 H            0.0477122        2.2        2.2             0.298817 7.07435e-16 7.02137e-16
 H              1.12077        2.2        2.2             0.234181 2.59968e-15 3.29048e-15
 H                  2.2        2.2        2.2          -2.35239e-17 -1.46653e-18   3.4658e-17
 H              3.27923        2.2        2.2           -0.234181 2.6517e-15 2.5943e-15
 H              4.35229        2.2        2.2            -0.298817 7.21027e-16 7.15216e-16
 H            0.0468785    3.28874        2.2              0.297229    -0.108617 -3.47727e-15
 H              1.12047    3.27953        2.2             0.232566   -0.232566 5.27959e-15
 H                  2.2    3.27923        2.2          2.63874e-15   -0.234181 2.59779e-15
 H              3.27953    3.27953        2.2            -0.232566   -0.232566 3.74641e-15
 H              4.35312    3.28874        2.2             -0.297229    -0.108617 -3.60776e-15
 H              0.02465    4.37535        2.2            0.161765  -0.161765  1.235e-15
 H              1.11126    4.35312        2.2              0.108617    -0.297229 -3.59781e-15
 H                  2.2    4.35229        2.2          7.09086e-16   -0.298817 7.27437e-16
 H              3.28874    4.35312        2.2             -0.108617    -0.297229 -3.58836e-15
 H              4.37535    4.37535        2.2            -0.161765   -0.161765 1.16782e-15
 H            0.0239487  0.0239487    3.29585            0.159285   0.159285 -0.0164987
 H              1.11106  0.0460589    3.28894            0.107742   0.295521  -0.107742
 H                  2.2  0.0468785    3.28874          -3.57122e-15     0.297229    -0.108617
 H              3.28894  0.0460589    3.28894           -0.107742   0.295521  -0.107742
 H              4.37605  0.0239487    3.29585           -0.159285   0.159285 -0.0164987
 H            0.0460589    1.11106    3.28894            0.295521   0.107742  -0.107742
 H              1.12018    1.12018    3.27982            0.231026   0.231026  -0.231026
 H                  2.2    1.12047    3.27953          4.70919e-15    0.232566   -0.232566
 H              3.27982    1.12018    3.27982           -0.231026   0.231026  -0.231026
 H              4.35394    1.11106    3.28894           -0.295521   0.107742  -0.107742
 H            0.0468785        2.2    3.28874              0.297229 -3.60306e-15    -0.108617
 H              1.12047        2.2    3.27953             0.232566 4.71575e-15   -0.232566
 H                  2.2        2.2    3.27923          3.35211e-15 2.61364e-15   -0.234181
 H              3.27953        2.2    3.27953           -0.232566 3.1961e-15  -0.232566
 H              4.35312        2.2    3.28874             -0.297229 -3.49826e-15    -0.108617
 H            0.0460589    3.28894    3.28894            0.295521  -0.107742  -0.107742
 H              1.12018    3.27982    3.27982            0.231026  -0.231026  -0.231026
 H                  2.2    3.27953    3.27953          3.19254e-15   -0.232566   -0.232566
 H              3.27982    3.27982    3.27982           -0.231026  -0.231026  -0.231026
 H              4.35394    3.28894    3.28894           -0.295521  -0.107742  -0.107742
 H            0.0239487    4.37605    3.29585            0.159285  -0.159285 -0.0164987
 H              1.11106    4.35394    3.28894            0.107742  -0.295521  -0.107742
 H                  2.2    4.35312    3.28874          -3.51976e-15    -0.297229    -0.108617
 H              3.28894    4.35394    3.28894           -0.107742  -0.295521  -0.107742
 H              4.37605    4.37605    3.29585           -0.159285  -0.159285 -0.0164987
 H           0.00502488 0.00502488    4.39498           0.0389994  0.0389994 -0.0389994
 H              1.10415  0.0239487    4.37605           0.0164987   0.159285  -0.159285
 H                  2.2    0.02465    4.37535           1.238e-15   0.161765  -0.161765
 H              3.29585  0.0239487    4.37605          -0.0164987   0.159285  -0.159285
 H              4.39498 0.00502488    4.39498          -0.0389994  0.0389994 -0.0389994
 H            0.0239487    1.10415    4.37605            0.159285  0.0164987  -0.159285
 H              1.11106    1.11106    4.35394            0.107742   0.107742  -0.295521
 H                  2.2    1.11126    4.35312          -3.54274e-15     0.108617    -0.297229
 H              3.28894    1.11106    4.35394           -0.107742   0.107742  -0.295521
 H              4.37605    1.10415    4.37605           -0.159285  0.0164987  -0.159285
 H              0.02465        2.2    4.37535             0.161765 1.21684e-15   -0.161765
 H              1.11126        2.2    4.35312              0.108617 -3.55468e-15    -0.297229
 H                  2.2        2.2    4.35229          7.17398e-16 7.35624e-16   -0.298817
 H              3.28874        2.2    4.35312             -0.108617 -3.52746e-15    -0.297229
 H              4.37535        2.2    4.37535            -0.161765 1.21681e-15   -0.161765
 H            0.0239487    3.29585    4.37605            0.159285 -0.0164987  -0.159285
 H              1.11106    3.28894    4.35394            0.107742  -0.107742  -0.295521
 H                  2.2    3.28874    4.35312          -3.5248e-15   -0.108617   -0.297229
 H              3.28894    3.28894    4.35394           -0.107742  -0.107742  -0.295521
 H              4.37605    3.29585    4.37605           -0.159285 -0.0164987  -0.159285
 H           0.00502488    4.39498    4.39498           0.0389994 -0.0389994 -0.0389994
 H              1.10415    4.37605    4.37605           0.0164987  -0.159285  -0.159285
 H                  2.2    4.37535    4.37535          1.21062e-15   -0.161765   -0.161765
 H              3.29585    4.37605    4.37605          -0.0164987  -0.159285  -0.159285
 H              4.39498    4.39498    4.39498          -0.0389994 -0.0389994 -0.0389994
