125

 H             0.838946  -0.644273   0.512359           0.0169292 -0.0906202 -0.0908151
 H              1.34334   0.329943   0.489516           0.0921059  0.0223573  -0.172997
 H              2.04768  -0.535374   0.542979           0.0416764   0.231022   0.150564
 H               3.0775    0.28323   0.473244          -0.0209824  -0.117706  0.0900757
 H              3.66693  -0.623395   0.555904           -0.147227  0.0884608  0.0521331
 H             0.431759   0.843257   0.132477           -0.195055     0.1749 -0.0568034
 H              1.31876    1.43329   0.483765           0.0332897   0.127206   0.110302
 H              2.20416   0.856354   0.155644           0.0330836  -0.195385   0.321555
 H              3.09186    1.42467   0.487515          -0.0638342  0.0705032  0.0772075
 H               3.9777   0.843848   0.144192            0.252457  -0.196999  0.0324921
 H             0.407686    1.96215   0.120654           0.0260797 -0.0351591   0.167282
 H              1.31905    2.51646   0.469792           0.0645305 -0.0739983 -0.0253879
 H              2.20168    1.95295   0.150866           -0.125375  -0.294824 -0.0991342
 H              3.10965    2.50529   0.470247            -0.14698 0.00958004  -0.045346
 H              4.00082    1.97258   0.136195            -0.236947   -0.391003 0.000956411
 H             0.393948    3.06828   0.179124          0.00503503   0.196179 -0.0800598
 H              1.30153    3.60308   0.481818          -0.0361035   0.207246  0.0290385
 H              2.20505    3.06666   0.162411           -0.325554   0.196207    0.20232
 H              3.10891    3.60795   0.503883           0.0060008 -0.0456247  0.0555162
 H              4.03219    3.08662   0.154864            0.078461  0.0129619  -0.106617
 H             0.395201    4.20003   0.195285          -0.0524384 -0.0299057   0.162422
 H              1.31696    4.71188   0.562585            0.119284 -0.0761525   0.250043
 H               2.2158    4.15544   0.217881            0.120635  -0.198106  0.0516574
 H               3.0665    4.74668   0.563799           0.0713545 -0.0465785 -0.0611606
 H              4.00126    4.22523    0.22174           -0.154381   0.175503 -0.0659151
 H             0.422701    0.27747    1.08673          -0.0445917   0.163444  -0.197962
 H              1.34728  -0.261433    1.39758           0.0963075  -0.136188  -0.118391
 H               2.2099   0.343938    1.14933           0.0648898 -0.0752455   0.011981
 H              3.04446  -0.278734    1.39629          0.00038784   0.058664  -0.112002
 H              3.98454   0.270781    1.10658          -0.0735793   0.179939 -0.0068623
 H             0.420525    1.40709    1.09096            0.167332  -0.130898   0.142325
 H               1.2963   0.867316    1.42865           0.0200501  0.0165711  0.0568587
 H              2.21945    1.42067    1.10621           -0.216989   0.295192   -0.19257
 H              3.11648   0.868742    1.42099           0.0553903   0.220216 -0.0938189
 H              4.00054    1.40009    1.09405          -0.0954736  0.0438551   0.204101
 H             0.415031    2.49982    1.10161           -0.116195 -0.0700565 -0.0132212
 H              1.33192    1.96358    1.44392           -0.0802459 -0.00447663    0.156413
 H              2.21113    2.51724    1.11386            0.0482443   0.0606985 -0.00257302
 H               3.0971    1.96044    1.43828          0.00267844  0.0243561 -0.0698123
 H              4.00974    2.49107    1.11772          -0.0428489 -0.0883258  0.0237094
 H             0.394774    3.59052    1.15449           -0.103221 -0.0268295  0.0685295
 H              1.30877    3.04873     1.4433            0.142298  -0.058262   -0.10041
 H              2.20532    3.60327     1.1517          0.00408678 -0.0121707  -0.133077
 H              3.09637    3.04448    1.44009          -0.0283515   0.173111 -0.0189219
 H              4.01473    3.61107    1.15298            0.135531  0.0660031  0.0282268
 H             0.396794    4.70306    1.20314           0.0667625  0.0583508  -0.183131
 H              1.28556    4.13443    1.44616            0.118936 -0.0143041  -0.222507
 H              2.18173    4.72489    1.22741           0.0440384 -0.0654001  -0.271685
 H              3.09046    4.13807    1.45479          -0.0448182   0.114634 -0.0619353
 H              3.95955    4.76735    1.20758           0.0732726  0.0931645  0.0930179
 H             0.435511  -0.274947    2.04635           0.0587971  0.0382806  0.0410605
 H              1.29994   0.295565    2.34546           0.0951754    0.15675   0.143099
 H              2.20338  -0.273495    2.06811           0.0785393 -0.0850856 -0.0984891
 H              3.08911   0.296081    2.34135           -0.214746    0.34266 0.00438749
 H              3.93357  -0.337374    2.05946          -0.00521907  -0.0549359    0.416589
 H             0.376452   0.848788    2.04635           0.0008632  0.0892378 -0.0227579
 H              1.30314     1.3753    2.37646          -0.0700774  0.0142707  -0.174089
 H              2.20691   0.861085    2.06343           -0.112744  -0.156681  0.0359654
 H              3.09135    1.39306    2.38456          -0.0694404  -0.269396  0.0913941
 H              3.99155   0.833502    2.06618           0.0870938  0.0741108   0.156589
 H             0.420042    1.92972    2.06112            0.141871 -0.0389987  0.0292841
 H              1.30918    2.47365    2.38758            0.325177  -0.202821    0.14248
 H              2.20856    1.94665    2.08047           -0.028974 -0.0923812  -0.256787
 H               3.0927    2.48275    2.41484            0.228988  -0.014191  -0.426065
 H              3.98091    1.93487    2.05878          0.00628731  0.0302619 -0.0138785
 H             0.390487    3.03139     2.0908           0.0723654 -0.0791171  0.0958515
 H              1.29939    3.56172    2.38843            0.102226 -0.0184553 -0.0580656
 H              2.21027    3.01603    2.08949           -0.0529999 -0.00119961   -0.145264
 H              3.10076    3.55887    2.39826           -0.273474     0.1603   0.157502
 H              3.99314    3.04041    2.07778          -0.0167696   0.111699 -0.0755188
 H             0.402462    4.13403    2.13731            0.158475  0.0830868 -0.0792684
 H               1.3296    4.67388    2.41714           -0.178146   0.115046 -0.0871136
 H              2.20119    4.10218     2.1162            0.269841 -0.0956192  -0.239644
 H              3.07336    4.70297     2.3723           0.0592825  -0.177153   0.148677
 H              3.99483    4.16575    2.11466          -0.0661888  -0.049939   0.100478
 H             0.379198    0.28041    3.00225            0.182762  0.0288857  0.0811914
 H              1.29035  -0.281296     3.2792            0.100134  -0.147047    0.17967
 H              2.20055   0.295034    2.99471            0.071684  0.0221887    0.05143
 H              3.07546   -0.33255     3.2352           -0.106195  -0.118676  -0.182595
 H              3.98009   0.275142    2.99805            0.169175  0.0384385   0.157397
 H             0.396403    1.37546    3.01042           -0.221781  0.0423998   -0.20106
 H              1.29086    0.80046    3.31834           -0.105479  -0.246719  0.0606012
 H              2.18465    1.38288    3.02774            0.201844 -0.0878641   0.123305
 H              3.08817   0.828912    3.30796           0.0284469  -0.130651   0.152252
 H               3.9993    1.36527    3.02511            -0.22612 -0.0911783  -0.227397
 H             0.399552    2.47255    3.02418           0.0751887  0.0804765  0.0998782
 H              1.28041    1.90804    3.32493          -0.0595696 -0.0462976 -0.0189213
 H              2.21104    2.46493    3.04553            0.299194  0.0399602  -0.115947
 H              3.10347    1.91304    3.34938            -0.105262 -0.00533532   -0.273961
 H              4.00756    2.48825    3.03195            0.112519  0.0692257   0.169994
 H              0.38558    3.57455    3.05724           -0.101774  0.0363443   0.187042
 H               1.3016    2.99385    3.33884           -0.130308  0.0243829   0.224487
 H              2.19965    3.56306     3.0342           0.0437583   0.268798  -0.110302
 H              3.10289    3.02168    3.35028           0.0235596  0.0180385  -0.177058
 H              4.02267    3.60006    3.04543           -0.267871  -0.201446   0.104346
 H             0.473348    4.73359    3.09206          -0.0968149  -0.167673 -0.0643369
 H              1.29989      4.069    3.33189            0.0573864 -0.00914315  -0.0159829
 H              2.19767    4.71268    3.05889          -0.0397557   0.228957   0.154734
 H              3.09583    4.11945     3.3028          -0.0125318 -0.0823168  0.0381327
 H              3.94351    4.78019    3.05396            -0.162591 -0.00871855 -0.00939935
 H             0.412621  -0.324466    3.95026           -0.063751  0.0316237    0.17631
 H              1.34192   0.256553    4.26692           -0.284261  -0.161584   -0.15484
 H              2.18143  -0.319654    3.89812            0.100716   0.105378  -0.136051
 H              3.06908   0.219817    4.21924          -0.0553459   0.266861   -0.01268
 H               3.9436  -0.346749    3.90012            0.100001 -0.0216238 -0.0713129
 H             0.394111   0.826341    3.96148           0.0485733  -0.190334  0.0950232
 H              1.29746    1.34402    4.27874           -0.121242 -0.0132696 -0.0101593
 H              2.20426   0.815415    3.94961           0.0435474 -0.0502658  -0.157638
 H              3.11539    1.34894    4.28825           -0.121949  -0.116796  0.0253915
 H              3.98019   0.789506    3.96777            0.144779  -0.181683   -0.21237
 H             0.415089    1.90712    3.98381           0.0810364 -0.0263382 -0.0859755
 H              1.31256    2.45925     4.2719            0.128035 -0.0146863  0.0498989
 H              2.18267    1.91874    3.98515            0.071201 -0.0784112 -0.0779521
 H               3.0965    2.46423    4.30137           0.0304476   -0.18914   0.125832
 H              4.01087    1.92255    3.97317          -0.0286524 -0.0122691   0.058829
 H             0.401271    3.04028    3.99052           -0.123196 -0.0190866 -0.0250062
 H              1.33268    3.55699    4.33649           -0.207735   0.124659   0.090742
 H              2.20272     3.0222    3.98504           0.0126243  0.0230994 -0.0431001
 H              3.09604    3.60382    4.28125          -0.0386162   0.119877  0.0739961
 H              4.00602    3.06989    4.00445             -0.123261 -0.000108777    -0.087509
 H             0.453605    4.15367    4.02652            0.127377   0.120633  0.0152134
 H              1.39365    5.02665    3.76836           0.0187859  -0.221633 -0.0816765
 H              2.19399    4.15378     3.9746           0.0783457   0.198856  -0.120149
 H              3.02728    5.00551    3.87548          -0.0375894  0.0887281   0.211317
 H              3.95149    4.20178    3.97482            0.244394   0.176648   0.144341
