125

 H             0.804809  -0.644881   0.564723           -0.335841  -0.262611  0.0249095
 H              1.35551    0.30984   0.466764           -0.205159 -0.0523048 -0.0689491
 H              2.02625  -0.565201   0.543409          -0.0107012  0.0313934   0.147478
 H              3.06887   0.281645   0.473054          -0.0125922  0.0123067   0.119778
 H              3.69161  -0.657781    0.61276           -0.202893 -0.0797093   0.315837
 H             0.447069   0.854467   0.135184           -0.148892   0.126586  -0.065528
 H              1.31888    1.42757   0.472713           -0.189696  -0.147126  0.0334457
 H              2.21663   0.863067   0.174507           -0.109193 -0.0944002   0.348756
 H                3.101    1.42798   0.486467            0.148587  -0.167939   0.200505
 H              3.96942   0.838186   0.131014            0.159061   0.107629   0.227769
 H             0.406502    1.96754   0.145987            0.080059   0.113874  -0.141402
 H              1.32529    2.51946   0.457059          -0.0354428  -0.094344  -0.446791
 H              2.22602    1.97361   0.162616           0.0915568 -0.0420184   -0.19028
 H              3.11313    2.54101   0.488975          0.00270455   0.322038   0.139455
 H              3.98235    1.97047   0.124568            0.0434218  0.00741356 -0.00206721
 H             0.387119    3.09005   0.185464          -0.0316201  0.0420407  0.0485967
 H              1.29043     3.6121   0.493505          -0.0903549  0.0562299  0.0722281
 H              2.20996    3.07773    0.18045            0.251302  -0.132252   0.129861
 H              3.11791    3.61698   0.492753           0.0654935 0.00792585   0.168766
 H               4.0168     3.0856   0.166207           0.0916304   0.115931 -0.0293891
 H             0.372813    4.17889   0.222216           -0.155282    0.19479  -0.112187
 H              1.30657    4.73495   0.531662          -0.00292186   0.0128516  -0.0880921
 H              2.20837    4.18985   0.242289            -0.20065  0.0623599   0.205449
 H              3.09659    4.74057   0.533172           0.0707203 -0.0718144   -0.16011
 H              4.01255    4.20889   0.216188            0.112292   0.251426  -0.319203
 H             0.451918   0.320914    1.09756           -0.141943  0.0716189   0.123128
 H              1.34666  -0.258284    1.43602          -0.00226763  -0.0580387    0.215183
 H              2.20378   0.331009    1.12924           -0.102602   0.105198  -0.101963
 H              3.05574  -0.244854    1.43423          -0.00183871  0.00589515 -0.00713032
 H              3.98982   0.305967    1.08758          -0.00411496   -0.186512    0.168468
 H             0.408057    1.41511    1.11898            0.113266  -0.126602 -0.0959272
 H              1.32505   0.868711    1.43118            -0.100234 -0.00544959  0.00801619
 H              2.20754    1.40381    1.12005            0.208597   0.078978   0.121888
 H              3.10919   0.858235    1.40486            0.203017  -0.163253   0.125942
 H              4.00903    1.40203    1.09457          -0.0303998 -0.0835639   0.179858
 H              0.42805    2.50474    1.09792          -0.0983071  -0.118508  -0.199208
 H              1.32517     1.9657    1.43186           -0.171044 -0.0951783 -0.0700181
 H              2.20356    2.49442    1.11529           -0.164395   0.277843  0.0465395
 H              3.08174    1.94784    1.42402          0.00738751 -0.0478178  0.0964337
 H              3.99849    2.49564    1.11339            0.211686   0.058049  0.0646771
 H              0.39098    3.61093    1.16955          -0.0631241  -0.029389  -0.225473
 H              1.30986    3.04766    1.44263           0.0126511   0.138714  0.0900825
 H               2.2133    3.57948    1.12578          -0.0520221 -0.0302592  0.0220368
 H              3.09315    3.04194    1.44923          -0.0072044 0.00498264 -0.0034067
 H              4.00305    3.61004    1.14547           0.0344856   0.131431   0.254904
 H              0.39871     4.7283    1.18684          -0.00203278  -0.0083825   0.0922499
 H              1.30911    4.12789    1.44944            0.166841  0.0528733  -0.201408
 H              2.18951    4.74063    1.22573           -0.166768  0.0503511  -0.188817
 H              3.09077    4.13519    1.43727           0.0790069  0.0534679  -0.160015
 H              3.97199    4.72758    1.18394           0.0467354  -0.063179  -0.150669
 H             0.431367  -0.281556    2.02598           -0.188531   0.241621   0.132344
 H              1.32001   0.295511    2.36493          -0.0287885 -0.0808493 -0.0527903
 H              2.21262   -0.29356    2.08702           -0.123181 -0.0895223   0.107436
 H              3.11381   0.314481    2.34595          -0.00102233   0.0468375   -0.109158
 H              3.99144  -0.275412    2.02996           -0.128673   0.151478  -0.222719
 H             0.431021    0.84857    2.05366           -0.148145   0.130888  -0.119744
 H              1.32298    1.39857     2.3873            0.119943 -0.0106782   0.179174
 H              2.20864   0.836824    2.07022           -0.019417  0.0883551    0.13135
 H              3.10037    1.38132    2.36815           -0.055516 -0.0523516 -0.0313827
 H               4.0225   0.841981    2.04581          -0.0455177  -0.122357 -0.0607054
 H             0.403202    1.95128     2.0564           0.0381222   0.305583 -0.0528555
 H              1.28806     2.4968    2.38773           0.0928722   -0.17499  -0.128493
 H              2.19768    1.92963    2.06935           0.0912395  0.0627369  -0.154636
 H              3.09435    2.46855    2.37879           0.0764256 0.00706061  -0.184141
 H              4.01211    1.94076    2.05014          -0.00779073    0.232751   0.0993748
 H             0.392827    3.04543    2.08763            0.114611  -0.192779  -0.107959
 H              1.29411    3.57668    2.38507            0.161509  -0.188308 -0.0234295
 H              2.19727    3.01074    2.07775            0.129579 -0.0308731  0.0642461
 H              3.09567    3.56786    2.38612          0.00366317  -0.187709   0.035646
 H              3.99967     3.0415    2.08489           0.0282597   0.102452   0.118812
 H             0.405489    4.13514    2.12332          -0.0291631  0.0377765 -0.0654895
 H              1.31898    4.70586    2.36167          -0.0106878 -0.0931547   0.230101
 H              2.18969    4.09628    2.09862            0.118748 -0.0503978 -0.0521699
 H              3.05541    4.68515    2.38434           -0.160218   0.270998  -0.136139
 H              3.97518    4.14694    2.11062             -0.2791  0.0937856   0.260935
 H             0.422411   0.275544    3.01161          0.00974214  -0.123001  0.0608551
 H               1.2925  -0.338865    3.26052           0.0200089   0.144283  -0.307001
 H               2.1935   0.280102    3.01635            0.149934  -0.295523   0.129007
 H              3.08073  -0.304838    3.24235           0.0132467  0.0298421   0.122879
 H              3.99598   0.283402    2.98583            0.155396 -0.0138477  -0.079175
 H             0.410415    1.37941     3.0087          -0.0882524 -0.0505874  -0.014996
 H              1.30917   0.813798    3.33244           -0.147098   0.263159  0.0185475
 H               2.2074    1.35757    3.01766            0.152965  0.0808692  0.0576534
 H              3.09293    0.80708    3.30964          -0.0680726  -0.165775  -0.162423
 H              4.00344    1.37458    3.00567            0.120221  -0.126979  -0.156387
 H             0.415423    2.48358    3.04355            0.022347  0.0768535  -0.102622
 H              1.30554    1.91567    3.35262           0.0894775    0.11806  0.0552819
 H              2.19452    2.46438    3.03327          -0.00423738  -0.0120453    0.123651
 H              3.07638    1.91738    3.32268            0.175976  0.0236718  -0.064092
 H              3.97667      2.468    3.02146          -0.0731582    0.18084  -0.161323
 H             0.394652     3.5822    3.04836           -0.0847343 0.000544604    0.179643
 H              1.29764    3.01955    3.36098            0.152295  0.0419939 -0.0889557
 H              2.19446    3.57184    3.01988             0.133714 -0.00226967  -0.0432198
 H              3.09322    3.01162    3.34221            0.105224  0.0634445  -0.114861
 H              4.00443    3.57406      3.028           -0.0172444 -0.00886466   -0.111565
 H             0.449365    4.73371    3.04191           -0.192381  0.0835161   0.191961
 H               1.3101    4.09687    3.31136           0.0134927  0.0374293  -0.145928
 H               2.2039    4.70936    3.04298          -0.0633527  -0.305555 -0.0339471
 H              3.07764    4.09065    3.29938           -0.141084  0.0248937  -0.100071
 H              3.95952    4.70857    3.06167           -0.311621   0.144763   0.102742
 H             0.399988  -0.311599    3.93135            0.150355   -0.24238 -0.0585491
 H              1.31081   0.227911    4.22434           0.0228605   0.142338 -0.0832116
 H              2.16769  -0.356185    3.90467          0.00815547  0.0776342  0.0908656
 H              3.08101    0.22125    4.23292            0.192403 -0.0638737   0.132946
 H              3.99654  -0.332533    3.89134           -0.164414  0.0647436  -0.141917
 H             0.396074   0.817855    3.96341           -0.122429  -0.231379  0.0937956
 H              1.31164    1.37058    4.31063           -0.118703 -0.0295663  -0.154115
 H              2.19181   0.814514    3.96804          -0.0533211  0.0643083  0.0420665
 H               3.0793    1.35596     4.2744           0.0594023  -0.237208  0.0520549
 H              3.96663   0.793481     3.9487           0.0363188 -0.0167337  -0.162826
 H             0.392913    1.94424    3.98548           -0.113633 -0.0738336   -0.13449
 H              1.30036    2.49052    4.32923           0.0355174  -0.120019  -0.141091
 H              2.19064    1.92353    3.97692            0.152197  0.0662667  -0.114091
 H              3.08343    2.47655    4.28275           0.0287615  -0.125995  0.0937296
 H              3.99471    1.90804    3.96246           0.0592809  0.0156195   0.117273
 H             0.392834     3.0699    3.99835            0.0752186 -0.00699751  -0.0630568
 H              1.32332    3.61972    4.32423           0.0822031   0.137046 -0.0880062
 H              2.18901    3.03202    3.96904               0.15862    -0.263909 -0.000950334
 H              3.07145    3.58628    4.30574           0.0610435  -0.195221  -0.109973
 H              3.98353    3.02758    3.99391           0.0369193   0.172087  0.0136492
 H             0.458825    4.19925    3.98688           0.0828968  -0.163682   0.178455
 H              1.34804    4.93273    3.95416             0.130823    0.179044 -0.00692952
 H              2.18543    4.15906    3.97205            0.230057  -0.205328   0.130259
 H              3.00996    4.92915    3.92498           -0.299519   -0.03537   0.163783
 H              3.95092    4.15642    3.98512           0.0359969  0.0507927   0.172864
