125

 H           0.00936234 0.00936234 0.00936234          -0.0151066 -0.0151066 -0.0151066
 H              1.10334  0.0503817  0.0503817          -0.0215895   0.100116   0.100116
 H                  2.2  0.0503895  0.0503895          6.42591e-15    0.089246    0.089246
 H              3.29666  0.0503817  0.0503817           0.0215895   0.100116   0.100116
 H              4.39064 0.00936234 0.00936234           0.0151066 -0.0151066 -0.0151066
 H            0.0503817    1.10334  0.0503817            0.100116 -0.0215895   0.100116
 H              1.12911    1.12911  0.0992535           0.0260186  0.0260186   0.225587
 H                  2.2    1.12923  0.0991615          2.69669e-15   0.0219756    0.212914
 H              3.27089    1.12911  0.0992535          -0.0260186  0.0260186   0.225587
 H              4.34962    1.10334  0.0503817           -0.100116 -0.0215895   0.100116
 H            0.0503895        2.2  0.0503895             0.089246 6.39975e-15    0.089246
 H              1.12923        2.2  0.0991615            0.0219756 2.63433e-15    0.212914
 H                  2.2        2.2  0.0992751          3.98617e-15 5.98433e-15    0.203307
 H              3.27077        2.2  0.0991615            -0.0219756 -3.91694e-18     0.212914
 H              4.34961        2.2  0.0503895           -0.089246 6.3729e-15   0.089246
 H            0.0503817    3.29666  0.0503817            0.100116  0.0215895   0.100116
 H              1.12911    3.27089  0.0992535           0.0260186 -0.0260186   0.225587
 H                  2.2    3.27077  0.0991615          -1.90775e-17   -0.0219756     0.212914
 H              3.27089    3.27089  0.0992535          -0.0260186 -0.0260186   0.225587
 H              4.34962    3.29666  0.0503817           -0.100116  0.0215895   0.100116
 H           0.00936234    4.39064 0.00936234          -0.0151066  0.0151066 -0.0151066
 H              1.10334    4.34962  0.0503817          -0.0215895  -0.100116   0.100116
 H                  2.2    4.34961  0.0503895          6.33686e-15   -0.089246    0.089246
 H              3.29666    4.34962  0.0503817           0.0215895  -0.100116   0.100116
 H              4.39064    4.39064 0.00936234           0.0151066  0.0151066 -0.0151066
 H            0.0503817  0.0503817    1.10334            0.100116   0.100116 -0.0215895
 H              1.12911  0.0992535    1.12911           0.0260186   0.225587  0.0260186
 H                  2.2  0.0991615    1.12923          -2.25503e-16     0.212914    0.0219756
 H              3.27089  0.0992535    1.12911          -0.0260186   0.225587  0.0260186
 H              4.34962  0.0503817    1.10334           -0.100116   0.100116 -0.0215895
 H            0.0992535    1.12911    1.12911            0.225587  0.0260186  0.0260186
 H              1.15622    1.15622    1.15622           0.0149771  0.0149771  0.0149771
 H                  2.2    1.15619    1.15619          2.21714e-15  0.00657142  0.00657142
 H              3.24378    1.15622    1.15622          -0.0149771  0.0149771  0.0149771
 H              4.30075    1.12911    1.12911           -0.225587  0.0260186  0.0260186
 H            0.0991615        2.2    1.12923             0.212914 2.55954e-15   0.0219756
 H              1.15619        2.2    1.15619           0.00657142 2.10163e-15  0.00657142
 H                  2.2        2.2    1.15627           1.25901e-14   1.2582e-14 -0.000579682
 H              3.24381        2.2    1.15619          -0.00657142 2.04078e-15  0.00657142
 H              4.30084        2.2    1.12923            -0.212914 2.71722e-15   0.0219756
 H            0.0992535    3.27089    1.12911            0.225587 -0.0260186  0.0260186
 H              1.15622    3.24378    1.15622           0.0149771 -0.0149771  0.0149771
 H                  2.2    3.24381    1.15619          2.01747e-15 -0.00657142  0.00657142
 H              3.24378    3.24378    1.15622          -0.0149771 -0.0149771  0.0149771
 H              4.30075    3.27089    1.12911           -0.225587 -0.0260186  0.0260186
 H            0.0503817    4.34962    1.10334            0.100116  -0.100116 -0.0215895
 H              1.12911    4.30075    1.12911           0.0260186  -0.225587  0.0260186
 H                  2.2    4.30084    1.12923          2.66576e-15   -0.212914   0.0219756
 H              3.27089    4.30075    1.12911          -0.0260186  -0.225587  0.0260186
 H              4.34962    4.34962    1.10334           -0.100116  -0.100116 -0.0215895
 H            0.0503895  0.0503895        2.2             0.089246    0.089246 6.37505e-15
 H              1.12923  0.0991615        2.2            0.0219756    0.212914 3.45468e-15
 H                  2.2  0.0992751        2.2           8.2141e-15    0.203307 6.06668e-15
 H              3.27077  0.0991615        2.2           -0.0219756    0.212914 3.56679e-15
 H              4.34961  0.0503895        2.2            -0.089246    0.089246 7.28057e-15
 H            0.0991615    1.12923        2.2             0.212914   0.0219756 2.13771e-15
 H              1.15619    1.15619        2.2            0.00657142   0.00657142 -1.09992e-14
 H                  2.2    1.15627        2.2           1.17896e-14 -0.000579682  1.28188e-14
 H              3.24381    1.15619        2.2           -0.00657142   0.00657142 -7.49477e-15
 H              4.30084    1.12923        2.2            -0.212914   0.0219756 3.57226e-15
 H            0.0992751        2.2        2.2             0.203307 5.99172e-15 8.06312e-15
 H              1.15627        2.2        2.2          -0.000579682  1.26193e-14  1.27506e-14
 H                  2.2        2.2        2.2          -1.99344e-15  -2.9765e-15  -1.8704e-15
 H              3.24373        2.2        2.2          0.000579682 1.19711e-14 1.28456e-14
 H              4.30072        2.2        2.2            -0.203307 8.17808e-15 8.13438e-15
 H            0.0991615    3.27077        2.2             0.212914  -0.0219756 3.65845e-15
 H              1.15619    3.24381        2.2           0.00657142 -0.00657142 -7.5844e-15
 H                  2.2    3.24373        2.2          1.17907e-14 0.000579682 1.18687e-14
 H              3.24381    3.24381        2.2           -0.00657142  -0.00657142 -7.99541e-15
 H              4.30084    3.27077        2.2            -0.212914  -0.0219756 3.58512e-15
 H            0.0503895    4.34961        2.2             0.089246   -0.089246 8.54929e-15
 H              1.12923    4.30084        2.2           0.0219756  -0.212914 3.6068e-15
 H                  2.2    4.30072        2.2          8.15111e-15   -0.203307 8.17346e-15
 H              3.27077    4.30084        2.2           -0.0219756   -0.212914 3.62554e-15
 H              4.34961    4.34961        2.2            -0.089246   -0.089246 8.51085e-15
 H            0.0503817  0.0503817    3.29666            0.100116   0.100116  0.0215895
 H              1.12911  0.0992535    3.27089           0.0260186   0.225587 -0.0260186
 H                  2.2  0.0991615    3.27077          2.46197e-15    0.212914  -0.0219756
 H              3.27089  0.0992535    3.27089          -0.0260186   0.225587 -0.0260186
 H              4.34962  0.0503817    3.29666           -0.100116   0.100116  0.0215895
 H            0.0992535    1.12911    3.27089            0.225587  0.0260186 -0.0260186
 H              1.15622    1.15622    3.24378           0.0149771  0.0149771 -0.0149771
 H                  2.2    1.15619    3.24381          1.91616e-15  0.00657142 -0.00657142
 H              3.24378    1.15622    3.24378          -0.0149771  0.0149771 -0.0149771
 H              4.30075    1.12911    3.27089           -0.225587  0.0260186 -0.0260186
 H            0.0991615        2.2    3.27077              0.212914 -3.46614e-16   -0.0219756
 H              1.15619        2.2    3.24381           0.00657142  1.9485e-15 -0.00657142
 H                  2.2        2.2    3.24373          1.33738e-14 1.17472e-14 0.000579682
 H              3.24381        2.2    3.24381          -0.00657142 4.39767e-15 -0.00657142
 H              4.30084        2.2    3.27077            -0.212914 2.68384e-15  -0.0219756
 H            0.0992535    3.27089    3.27089            0.225587 -0.0260186 -0.0260186
 H              1.15622    3.24378    3.24378           0.0149771 -0.0149771 -0.0149771
 H                  2.2    3.24381    3.24381          4.44313e-15 -0.00657142 -0.00657142
 H              3.24378    3.24378    3.24378          -0.0149771 -0.0149771 -0.0149771
 H              4.30075    3.27089    3.27089           -0.225587 -0.0260186 -0.0260186
 H            0.0503817    4.34962    3.29666            0.100116  -0.100116  0.0215895
 H              1.12911    4.30075    3.27089           0.0260186  -0.225587 -0.0260186
 H                  2.2    4.30084    3.27077          2.63396e-15   -0.212914  -0.0219756
 H              3.27089    4.30075    3.27089          -0.0260186  -0.225587 -0.0260186
 H              4.34962    4.34962    3.29666           -0.100116  -0.100116  0.0215895
 H           0.00936234 0.00936234    4.39064          -0.0151066 -0.0151066  0.0151066
 H              1.10334  0.0503817    4.34962          -0.0215895   0.100116  -0.100116
 H                  2.2  0.0503895    4.34961          6.32489e-15    0.089246   -0.089246
 H              3.29666  0.0503817    4.34962           0.0215895   0.100116  -0.100116
 H              4.39064 0.00936234    4.39064           0.0151066 -0.0151066  0.0151066
 H            0.0503817    1.10334    4.34962            0.100116 -0.0215895  -0.100116
 H              1.12911    1.12911    4.30075           0.0260186  0.0260186  -0.225587
 H                  2.2    1.12923    4.30084          2.44489e-15   0.0219756   -0.212914
 H              3.27089    1.12911    4.30075          -0.0260186  0.0260186  -0.225587
 H              4.34962    1.10334    4.34962           -0.100116 -0.0215895  -0.100116
 H            0.0503895        2.2    4.34961             0.089246 6.32668e-15   -0.089246
 H              1.12923        2.2    4.30084            0.0219756 2.41918e-15   -0.212914
 H                  2.2        2.2    4.30072          8.12994e-15 8.18948e-15   -0.203307
 H              3.27077        2.2    4.30084           -0.0219756 2.65528e-15   -0.212914
 H              4.34961        2.2    4.34961           -0.089246 5.2951e-15  -0.089246
 H            0.0503817    3.29666    4.34962            0.100116  0.0215895  -0.100116
 H              1.12911    3.27089    4.30075           0.0260186 -0.0260186  -0.225587
 H                  2.2    3.27077    4.30084          2.63728e-15  -0.0219756   -0.212914
 H              3.27089    3.27089    4.30075          -0.0260186 -0.0260186  -0.225587
 H              4.34962    3.29666    4.34962           -0.100116  0.0215895  -0.100116
 H           0.00936234    4.39064    4.39064          -0.0151066  0.0151066  0.0151066
 H              1.10334    4.34962    4.34962          -0.0215895  -0.100116  -0.100116
 H                  2.2    4.34961    4.34961          5.30987e-15   -0.089246   -0.089246
 H              3.29666    4.34962    4.34962           0.0215895  -0.100116  -0.100116
 H              4.39064    4.39064    4.39064           0.0151066  0.0151066  0.0151066
