125

 H             0.815283  -0.645126   0.514587          -0.0935301  -0.159504 -0.0587681
 H              1.35451   0.294322   0.451052           -0.146335   0.110836 -0.0591529
 H              2.12244  -0.527624   0.542646          -0.0555674 -0.0800599 -0.0549449
 H              3.06553   0.292474     0.4397          -0.0603962   0.160462  0.0234818
 H              3.63062   -0.66077   0.589737           -0.144263  0.0231169   0.134405
 H             0.458777   0.826596   0.138177            0.231341  0.0834739  -0.115185
 H              1.33808    1.39411   0.484407           0.0721654   0.122806  0.0928132
 H              2.20804   0.882641  0.0957315           -0.122826   0.103758  -0.190495
 H              3.11236    1.42174   0.468923           -0.202399 -0.0630369 -0.0930851
 H              3.97361     0.8447   0.156675          -0.0101882   -0.04095   0.370135
 H             0.399105    1.96858   0.144104           0.0931562 -0.0648991   0.154621
 H              1.29814    2.50214   0.507464            -0.13312   -0.24401  0.0867372
 H              2.19926    1.97783   0.167893            0.079632 -0.0179795   0.333593
 H               3.0939    2.53013   0.488099          -0.0337287  0.0550838   -0.14376
 H              3.97862    1.97857   0.111607            0.111739  -0.230021 -0.0768102
 H             0.377733    3.06463   0.204801            0.172442    0.11647  -0.126882
 H              1.31191    3.58823   0.500954            0.164055  -0.047853   0.173248
 H              2.18126    3.05767   0.174959          -0.0232639   0.122716  -0.222656
 H              3.09445    3.63675   0.517524          -0.0947828  -0.113432  0.0519461
 H              3.99036    3.10808   0.147644           -0.124928   0.160385  0.0292367
 H             0.413677    4.16758   0.186569           -0.270197   -0.13149  -0.152383
 H              1.30764    4.72537   0.540221           -0.199025  -0.101657   0.147962
 H              2.18096    4.16894   0.206192          -0.0640665 -0.0845057  0.0786979
 H              3.05859    4.74412    0.55391            0.365769 -0.0336504  -0.107104
 H                 3.96    4.24044   0.233683            0.212598  -0.147822  0.0934481
 H              0.41552   0.266448    1.08355           0.0518412   0.195468  0.0871868
 H              1.34992  -0.266606    1.40588            0.117948   0.213823 -0.0738252
 H              2.20159   0.366115    1.11109           0.0705259  -0.119274  0.0157213
 H               3.0193  -0.269562    1.40785          -0.0519639  -0.020638 -0.0279465
 H              3.96215   0.266161    1.10008          -0.0993158  -0.159937 -0.0373133
 H             0.406564    1.38596    1.11034            0.256481  -0.108013 -0.0593464
 H              1.28636    0.83724    1.43859            -0.22261 -0.0615342  -0.206818
 H              2.21213    1.43208    1.11151            0.160295  0.0132487  -0.216367
 H              3.10796   0.872077    1.39977           0.0304372  -0.127715 -0.0543564
 H              4.00359    1.40893    1.10336           0.0626459 -0.0845661   0.194186
 H             0.369454    2.48966    1.13668           -0.231368  0.0605919    0.11754
 H              1.30546    1.93722    1.44101           -0.132121  0.0171794 -0.0156683
 H              2.20576    2.50506    1.11691           -0.300803 -0.0210571   0.206429
 H              3.11334    1.95445    1.43374            0.156174  -0.112229   0.190095
 H              4.01635    2.49604    1.11795           -0.193513   0.119061  0.0241707
 H             0.393678    3.59363    1.14514            0.366964  -0.151528 -0.0233937
 H               1.2968    3.03548    1.45726           0.0192779  -0.113252   0.287083
 H              2.19195    3.59636    1.16389           0.0337466  -0.143233  0.0377391
 H              3.10163    3.04667    1.43383           -0.0565675   0.0656478 -0.00986633
 H              4.00329    3.60271    1.16115           0.0314062  0.0338729  -0.253508
 H             0.396999    4.72547    1.18078           0.0730021 -0.0474025   0.133333
 H              1.30074    4.13517    1.44234           0.0612621   0.166836 -0.0902259
 H              2.17582      4.733    1.20828           -0.122072 -0.0876573  0.0981298
 H              3.09181    4.13923     1.4701            0.0722207 -0.00205365   -0.179056
 H              3.97109    4.73625    1.22579           -0.341343   0.102108  0.0721863
 H             0.460666   -0.28802    2.01858           -0.102608  0.0544914 -0.0707518
 H              1.29034   0.325786    2.36402           -0.0506861 -0.00822448   -0.143738
 H              2.16267  -0.261512     2.0828            0.133894    0.35304  0.0900969
 H              3.08706   0.307436    2.33975           -0.134516   0.159551   0.101088
 H              3.91977  -0.316682    2.05505          -0.0495573 -0.0917612  -0.165929
 H             0.380897   0.841403    2.04543          -0.0378998  0.0301817   0.153189
 H              1.31869    1.40216    2.39005            0.149033   0.166484  0.0539173
 H              2.19285   0.870417    2.05821          -0.0295685   -0.14242  -0.197644
 H              3.10739    1.39269    2.38121          -0.0487833    0.10126 -0.0299468
 H              4.01004   0.821605    2.05104          -0.0334814  -0.070056 -0.0797957
 H             0.399691    1.93743    2.07541          -0.0259566  -0.135603 -0.0697492
 H              1.31008    2.48515    2.40512           0.0358922   0.100251 -0.0910577
 H              2.20907    1.94934    2.06866            0.205465  -0.194757 -0.0912498
 H              3.11082    2.47041    2.39921            0.146224  -0.153286  0.0436615
 H              4.00843    1.92197    2.07585           0.0962433  0.0457009 -0.0243453
 H             0.411304    3.02555    2.07715          -0.0649323  -0.104627  0.0457893
 H              1.31122    3.57617    2.37933          0.00154251 -0.0478039 -0.0534389
 H              2.22319    3.01708    2.08386           -0.174648   0.102923   0.025041
 H              3.10169     3.5712    2.40016            0.231576 -0.0203914   0.116415
 H              3.99255    3.04315    2.08623          -0.0105388 -0.0405997  -0.106772
 H             0.398782    4.13811    2.10009            0.262851 -0.0594131  -0.184428
 H               1.3184     4.7021    2.35118           -0.210703   0.115146  0.0916461
 H              2.20172     4.1136    2.10079          -0.0125621  0.0137544 -0.0611288
 H              3.07809    4.69309    2.40374          -0.0874259 -0.0462683  0.0143972
 H              4.00138    4.13083    2.12087          -0.0613521  0.0455879 -0.0599574
 H             0.384994   0.262232    2.96988          -0.0814415  0.0872293  0.0847975
 H              1.31731  -0.310496    3.24934           0.0877702 -0.0639476  0.0375735
 H              2.19048   0.303234    2.97816           -0.174522 -0.0236399  0.0761801
 H              3.07423  -0.275744    3.25275           0.0661998 -0.0697829  -0.099232
 H              3.98569   0.262512    2.98063            0.011899 -0.0937672  -0.264592
 H             0.409871    1.39045    3.01177            0.199072 -0.0816564  -0.106071
 H              1.29153    0.81542     3.3138          -0.0401365  -0.167456 -0.0256836
 H              2.20623    1.39654    3.00731          -0.0393125   0.193826  0.0222605
 H              3.10437   0.828675    3.32387           0.0075683   0.122713  -0.236539
 H              4.02683    1.37653    3.02296           0.0183914 -0.0551957  -0.140137
 H             0.424149    2.47658    3.04926          -0.0892038   0.112327 -0.0535374
 H              1.30839    1.91963    3.34748            0.113408   0.128096  0.0579377
 H               2.2018    2.47092    3.04106           0.0429883 -0.0600917  -0.103461
 H              3.09744    1.91535    3.35684            0.142307 -0.0250713   0.232165
 H              4.00781    2.48759    3.03971           -0.267118    0.03511  0.0411315
 H             0.413244    3.57875    3.03423          -0.0835572 -0.0449931  -0.121565
 H              1.29766    3.02166     3.3646          -0.0902678  -0.160026 -0.0271229
 H               2.2059    3.54866    3.03516            0.139823 -0.0684126   0.184691
 H               3.1152    3.00347    3.35227          -0.0110764   0.142892   0.126682
 H              4.01782     3.5706    3.06474            0.115871   0.102214   0.116737
 H             0.441246    4.71985    3.02464          -0.0296034  0.0791593  0.0799125
 H              1.31953    4.11828    3.31447          -0.0349441 -0.0742711  0.0762217
 H                 2.22    4.66808    3.03728             0.103027  -0.0137738 -0.00164588
 H              3.10606    4.07501    3.34879            0.185009   -0.19727   0.106964
 H               3.9212    4.73045    3.09543           0.0366665   0.106104   0.167252
 H             0.397916  -0.303465    3.91362            0.101079   0.272857  0.0722944
 H              1.30344   0.237511     4.2356           0.00896275  -0.0135124 -0.00638771
 H              2.20748  -0.296299    3.92505             0.03142     0.2232   0.165134
 H              3.08576   0.257112    4.25433            0.125268   0.240753 -0.0623593
 H              3.97904  -0.326264    3.92366            0.163732   0.135031   0.152133
 H             0.398122   0.801894    3.95383          -0.0170061   0.165487  -0.141253
 H              1.29627    1.34178    4.27871           0.0697373   0.153503  -0.211453
 H              2.20733   0.821568    3.93696           0.0277222    0.13125  0.0497031
 H              3.10625    1.35468    4.28922            0.129671  0.0128749 -0.0113018
 H               4.0136   0.795247     3.9465           -0.192286 -0.0477022  -0.109969
 H             0.388849      1.933    3.97006           0.0430541  0.0327878 -0.0283408
 H              1.29436    2.46032    4.28817            -0.23557  -0.197405 -0.0833434
 H              2.19565    1.91512     3.9721          -0.0878666  0.0597324  -0.110397
 H              3.06655    2.45607    4.33574           -0.161354  -0.083948   0.077885
 H              3.98383    1.93973    3.98489            0.146509  0.0242837   0.176674
 H             0.410979    3.05486    4.00371            0.237392  0.0289537 -0.0311707
 H               1.3353    3.59105    4.30114             0.158178   0.0806992 -0.00823272
 H              2.20344    3.00722    3.97959           0.0894533  -0.029941   0.170163
 H              3.08321    3.55739    4.33209           -0.212853  0.0145128  0.0364279
 H              4.01024    3.04074    4.01349           0.0990601  -0.200694 -0.0848426
 H             0.480081    4.18155    3.98692          -0.0420855  -0.167951  0.0287781
 H              1.47941     5.0018    3.84583           -0.197094 0.00428445  -0.121499
 H              2.20444     4.1459    3.99628          -0.00730782   -0.137119  -0.0606995
 H              2.98381    5.03777     3.7926          -0.0747718 -0.0272936   0.114318
 H              3.96475    4.16166    4.03556           -0.196195   0.115897 -0.0936967
