125

 H             0.815543  -0.666654   0.534892            -0.07872  -0.157137 -0.0406774
 H              1.32959   0.291004   0.437651            0.306915  0.0665758 -0.0100123
 H              2.06099  -0.540701   0.571618          -0.0822334   0.156579  -0.115316
 H              3.06873   0.272418   0.462674          -0.0787448 -0.0247172  -0.203679
 H              3.69943  -0.628228   0.583772          -0.0660572  -0.110083 0.00127313
 H             0.398402   0.826112   0.152128            0.211847  0.0760679   0.160239
 H              1.30718    1.40577   0.470531            0.182267   0.015602  0.0687288
 H              2.19662   0.838248   0.144486            -0.35333  -0.158295    0.19579
 H              3.10388    1.38715   0.469261           0.0451662  0.0936576   0.201522
 H              3.99253    0.83078   0.133713           0.0104577  -0.104045  0.0479487
 H              0.42924    1.95607    0.13874            0.177464  -0.168415 -0.0083931
 H              1.30649    2.51211   0.475097            0.036572 -0.0355467  -0.167862
 H              2.21219     1.9687   0.146972            0.180243   0.105549  -0.175315
 H              3.08659    2.50896   0.462803            0.162688  0.0674052 -0.0860019
 H              3.98367    1.95817   0.155452             0.0995721 -0.000538764     0.166564
 H             0.384664    3.07113   0.160977            0.174067   0.031329   0.192611
 H              1.28736     3.6007   0.508328           -0.132244   0.148653  0.0413543
 H              2.17449    3.07154   0.158296          -0.0520676   0.280353  -0.161006
 H              3.09464     3.6133   0.475657           0.0399825    0.12544  -0.101092
 H              4.03939     3.0624   0.196502           0.0304734  -0.267071   0.257875
 H             0.410045    4.20272   0.204896           -0.195618  0.0978986  -0.123279
 H              1.30343    4.72023   0.555876           0.0426761  -0.140484  -0.246546
 H              2.18154    4.18319   0.199259           -0.119836  -0.104702  0.0269265
 H              3.07729    4.74607   0.523106           -0.110388 -0.0996844   0.108852
 H              3.98208    4.20279   0.200818          -0.0232971  0.0372819 -0.0836914
 H             0.446459   0.262057    1.09398           -0.159499  0.0405484  0.0303005
 H              1.33518  -0.249353    1.41908           -0.154287  -0.260548  -0.228115
 H              2.20782   0.335566    1.13537          -0.0714734 -0.0439588   0.144792
 H              3.07441  -0.276005    1.41632            0.080361   0.118958 -0.0523321
 H               3.9881   0.292959    1.10369          -0.0892047   -0.19964  -0.266071
 H             0.405811    1.39364    1.09473            0.161767  -0.264567  -0.102713
 H               1.3008   0.869043    1.40495          -0.0346225  -0.165467   0.204884
 H              2.21619    1.40829    1.10367           0.0969434 -0.0744812  0.0183129
 H              3.10766   0.844208    1.43289           -0.185714   0.134611 -0.0255241
 H              4.00427    1.40171    1.08071          -0.0311915 -0.0751521 -0.0674402
 H             0.404031     2.5078     1.0965           0.0993996  -0.266371  -0.158423
 H              1.30083    1.94808    1.41667          -0.0333544   0.213694  -0.101113
 H              2.19346    2.49285    1.11622           -0.155926   0.316612  0.0810975
 H              3.09999     1.9511    1.42689          -0.0364717   0.283221   0.131774
 H              3.99752    2.51422     1.1135          -0.0891512 -0.0512712   0.122138
 H             0.385559    3.61315    1.16599           -0.157561 -0.0746824  0.0346984
 H              1.29486    3.02704     1.4319          -0.0800304  0.0022363  0.0274412
 H               2.1857     3.5954    1.11992            0.059055  -0.129198  0.0387746
 H               3.0936    3.05123    1.43785            -0.04377   0.118244  -0.119553
 H              3.99217    3.62513    1.14174            0.102207  0.0516851  0.0194486
 H             0.425693     4.7177    1.18917           -0.0261077 -0.00987243   -0.189941
 H              1.29858    4.10734    1.47727           -0.123646  0.0886631  -0.206505
 H              2.19495     4.6928    1.18887           -0.0402823    0.210247 -0.00114748
 H              3.07322    4.13047     1.4735          -0.0962749  -0.302079   0.132406
 H              3.97327    4.72939    1.19303           -0.213888   0.131482  0.0595083
 H             0.442739  -0.311796    2.05285           0.0589838   0.244211  -0.207657
 H              1.30015   0.314574    2.36612            0.069571 -0.0755356  -0.202722
 H              2.18776  -0.261944    2.07106            0.036124  0.0276782 0.00967897
 H              3.08861   0.310218    2.34748           -0.157904   0.094946  -0.125171
 H              3.96909  -0.274314    2.03329             0.184596 -0.00149073     0.13325
 H             0.394396   0.840104    2.04363          -0.0323233 -0.0709687  -0.106754
 H              1.28459     1.3906    2.37207          -0.0515536  -0.179023 0.00169827
 H              2.19144   0.861473    2.05566            0.101326  0.0787146 -0.0645223
 H              3.07827    1.39638    2.37476          -0.0235595  0.0469826   0.329637
 H              4.01326   0.852589    2.05585          -0.0738408 -0.0624127   0.027129
 H             0.399152    1.94622    2.03283            -0.19506 -0.0847137  -0.103912
 H              1.30892    2.47744    2.36932           -0.109918  -0.137826  0.0442282
 H              2.18516    1.94206    2.06357           -0.242778 -0.0746056   -0.13771
 H              3.09673    2.48252    2.38979          -0.0782177  0.0108254  -0.282034
 H              3.98329    1.94495    2.06171            0.155391   0.158776 0.00827555
 H             0.388276    3.05176    2.09797           0.0115217  0.0921304  -0.117719
 H               1.3086    3.55825    2.40354           0.0188076  -0.102288  0.0599078
 H              2.19539     3.0331    2.05646          -0.0538843 -0.0887712   0.100048
 H              3.10129    3.56117    2.40135           -0.101192    0.11966 -0.0516661
 H              4.00431    3.05139    2.07583            0.132425  -0.135114 -0.0382237
 H             0.435328    4.16492    2.14567           0.0497278   0.217477   0.131789
 H               1.3673    4.71122     2.3681           0.0010584   -0.21516   0.192587
 H              2.20892    4.10474    2.10712           -0.121398  -0.062584   0.132632
 H              3.08967    4.67013    2.42288          -0.0434193  -0.103733    0.12149
 H              4.00357    4.13651     2.1169            -0.18109  -0.189476  0.0532065
 H             0.406017   0.279366    2.98641          -0.0644983  0.0814648   0.029307
 H              1.30913  -0.290484    3.27027           0.0575772   0.241426  0.0978158
 H              2.19776   0.313619    2.99093           -0.118121 -0.0170056    0.23465
 H              3.08523  -0.300352     3.2392          -0.00220701    0.160086  -0.0892565
 H              3.99303    0.28077    2.99649            0.270253  -0.127053 -0.0569458
 H             0.387028    1.38018    3.00169           0.0145953   0.177506 -0.0955741
 H               1.2957   0.829923    3.32215           0.0127593  0.0394616   0.177594
 H              2.18862      1.402    3.00505             0.14929  -0.110108 -0.0558527
 H              3.09467   0.830269    3.32174          -0.0829045  -0.275122    0.23825
 H              3.98077    1.39621    3.00653             0.13819 -0.0169202 -0.0846791
 H             0.411912    2.46793     3.0098            0.151351    0.14232   0.215895
 H              1.29019    1.91795      3.331            0.141586  0.0966039   -0.14958
 H              2.18703    2.48844    3.01508            -0.14237  0.0304052  0.0589639
 H              3.07684     1.9325    3.34847          -0.00203798    0.301635  -0.0805851
 H              3.98515    2.48827    3.02497           0.0104105   0.208314  0.0487869
 H             0.384101    3.58712    3.04979            0.017752   0.061456  0.0530546
 H              1.28639     3.0165    3.34493           -0.143767  -0.046984  -0.143435
 H              2.20466    3.56915    3.03783          -0.0383802  -0.234797  -0.181757
 H              3.08861    3.02633    3.35702           0.0745559  -0.144678  0.0576674
 H               4.0029    3.59645    3.06103           0.0548804  -0.221444 -0.0763875
 H             0.529123    4.78656    3.06604            0.203978  -0.137763   0.098074
 H              1.32624    4.10978    3.33494            0.124157  -0.146804 0.00932311
 H              2.21163     4.7052     3.0863          0.00981805   0.159576 -0.0988875
 H              3.09479    4.09343    3.32947             0.0796823    -0.159636 -0.000681735
 H              4.00554    4.71437    3.07234           0.0898486   0.126325 -0.0198633
 H             0.413258  -0.321627    3.89489          -0.0328785  -0.144282    0.16632
 H               1.3243   0.231891    4.24415           0.0734644   0.359752  -0.237039
 H              2.23761  -0.298823    3.91787           0.0288884   0.107512 -0.0762336
 H              3.09214   0.250604    4.25177          -0.0476687  -0.127613  0.0191871
 H              3.99386  -0.313981    3.91898          -0.0128434  0.0651793  0.0886918
 H             0.396399   0.789296    3.95981           0.0206338    0.22407 -0.0276313
 H              1.30286    1.36769    4.28782           0.0681988   0.134284   0.139289
 H              2.20441   0.835336    3.96327          0.00140688  -0.260044 -0.0641827
 H               3.1134    1.35286    4.29401           -0.118182  -0.126577  0.0888939
 H              3.99976   0.805938    3.95964           -0.049526  0.0966545  0.0268909
 H             0.388411     1.8911    3.95553           0.0800794   0.261375  -0.162084
 H              1.30924    2.46111    4.30772             0.11265   -0.16218 -0.0369758
 H              2.20231    1.92345    3.98333           -0.115451   0.280782  0.0817687
 H              3.06869     2.4721    4.29594           0.0158398  0.0043161   0.260382
 H               3.9779    1.91652    3.97529            0.175301   0.213811  -0.294599
 H             0.412078    3.01467    3.98467          -0.000527994    0.0165789     0.147096
 H              1.30957     3.5945    4.29304            -0.152241   -0.106234 -0.00484308
 H              2.17892    3.02775    3.96788            0.183162  -0.153985  -0.087528
 H              3.07085    3.59577     4.3138            -0.148903   0.0986982 -0.00103664
 H              3.98915    3.04062    4.01509            0.155634 0.00762449    0.24247
 H             0.472537    4.18175    4.00185            0.100453  -0.127214   0.149586
 H              1.43988    4.99028    3.91191           0.0479027  -0.026906   0.111223
 H              2.19274    4.13463    3.99963           0.0741251   0.265273  -0.242759
 H              2.99525     4.9252    3.99461            -0.135895   -0.118466 -0.00245775
 H               3.9391     4.1758    4.01425            0.131453  -0.202964   0.148698
