125

 H             0.808662  -0.579939    0.47594             0.19047  -0.212184   0.203571
 H              1.35579   0.351528   0.470028           -0.0710029   0.0597115 0.000672179
 H              2.08977  -0.557949   0.603776           0.0828931  0.0176124  -0.249024
 H              3.07643   0.260929    0.46987           -0.124256  -0.185731 -0.0661776
 H              3.53788  -0.756623   0.639862           -0.044262   -0.15587    0.12846
 H             0.436817   0.850822   0.135916            0.196871  -0.146128  -0.120443
 H              1.32849    1.41894   0.475879          -0.0501611   0.106284  -0.173116
 H              2.23938    0.87056   0.131128          -0.00432695   0.0150858   -0.109149
 H               3.1116    1.41539   0.478719            0.061377 -0.0796261   0.180823
 H              3.99268   0.844457   0.166594           -0.170508  0.0776708 -0.0543829
 H             0.441553    1.96502   0.125787          -0.00696748  -0.0147636   -0.146715
 H              1.31375    2.50356    0.50272           0.0164748   0.175628 -0.0842176
 H              2.21503      1.978   0.141095             0.13232  -0.201879   0.192057
 H              3.09861     2.5093   0.484115          0.00851255  0.0425256   0.279448
 H               3.9837    1.97037  0.0966933          0.000373439  -0.0485574   -0.144221
 H             0.399705    3.07867    0.16256            -0.07678  0.0834145   0.211504
 H              1.31201    3.60507   0.498041           0.0252175  0.0569877  -0.116876
 H              2.20068    3.06381   0.180599            0.288165   0.179326 0.00443262
 H              3.09591    3.61635   0.499439          -0.0361342   0.104194 -0.0649632
 H              3.99068    3.08203   0.145618            -0.10275  0.0766152 -0.0532705
 H             0.432891    4.19337   0.202266            0.108515 -0.0571917   0.200873
 H              1.33704       4.71   0.566373           0.0622719  -0.337445 0.00757442
 H              2.20405    4.16969   0.232674            0.264405   0.210043 -0.0827999
 H               3.0833    4.72522   0.535878            0.155531 -0.0439703  -0.137002
 H               3.9994    4.19102   0.213955           0.0385443 -0.0804265  0.0383602
 H             0.440376   0.275011    1.08893            0.136638  -0.082846  -0.235955
 H              1.34092   -0.25273    1.40493            0.094113  -0.102909 -0.0591872
 H              2.20384   0.360584    1.13465          -0.0113563 -0.0645391  0.0443487
 H              3.02487  -0.259039     1.4418           0.0561313   0.179199   0.048748
 H              3.98599   0.227705    1.11115           -0.296605  -0.159001    0.12426
 H             0.427924    1.39039    1.09394          -0.0577474   0.109243 -0.0570932
 H              1.33235    0.86906    1.43812          0.00159494 -0.0257515 -0.0128056
 H              2.21356    1.43199    1.10729          0.000167773   0.0810601   -0.124381
 H              3.11009   0.860354    1.41406          -0.00774319  0.00980142   0.0189903
 H              4.00236    1.40685    1.07243           -0.0503377 -0.00162602   0.0813578
 H             0.386858    2.49163    1.11438           -0.206789 -0.0716973  -0.102902
 H              1.32253    1.95231    1.43433          0.000619795  -0.0849762  0.00759853
 H              2.21443     2.5089    1.13144           0.0117012   0.215316   0.101683
 H              3.11212    1.94929    1.42558          -0.0183648  -0.105888 -0.0132407
 H              4.02791    2.49835    1.09578           0.0631388 -0.0335963 -0.0868629
 H             0.412153    3.61235    1.11543            0.282257  0.0832238   0.155484
 H              1.29934    3.04324    1.43929            0.167047  0.0838901  0.0649264
 H               2.1941    3.60369    1.15526          -0.000856345   -0.0217278    0.0855333
 H              3.11256    3.03314    1.43909          -0.0708105 -0.0201704  0.0413165
 H              4.00303    3.59282    1.15128          -0.0182429  0.0481086  0.0436094
 H             0.423337    4.73911    1.18821          0.00873776  0.0676867  -0.208716
 H              1.30321    4.13649    1.46547            0.208833   0.259133   0.152521
 H              2.21039    4.73818    1.22806             -0.1653   0.180396  -0.162869
 H              3.08612    4.11947    1.45193          -0.0211722  0.0820525  -0.351587
 H               3.9505     4.7587    1.22107           -0.256023  -0.101813 0.00648671
 H             0.481512  -0.275217     2.0648            0.223181   0.171836  0.0811227
 H              1.31587   0.322857    2.37663          -0.0927342   0.206817   0.042275
 H              2.17624  -0.248621    2.09351           -0.184263  0.0839618   0.160207
 H              3.09503   0.334851    2.35054          -0.0251771 -0.0371937    0.02624
 H              3.92691  -0.320207    2.05675            0.0734903 -0.00929583    0.156927
 H             0.408704   0.833847    2.04809           -0.256687  0.0859568   0.190106
 H              1.32932     1.4236    2.40007          -0.0472943 -0.0251531   -0.24095
 H              2.20799   0.870126    2.07143           -0.098778 -0.0663717  0.0796491
 H              3.09747    1.40121    2.37518            -0.08367  0.0804119  -0.112578
 H              4.01497   0.855024    2.02011            0.205425   0.112211  0.0208678
 H             0.431202    1.93345    2.06276           -0.134076 -0.0223504  0.0255737
 H              1.31268    2.48887     2.3944             0.18275  0.0385874   0.154733
 H              2.21844    1.96513    2.06754             -0.10663   0.0331051 -0.00393703
 H              3.11423    2.48342    2.38986           -0.0477799 -0.00971538  -0.0361505
 H              3.99784    1.94555    2.04361           0.0419783   0.153441  0.0223547
 H             0.392331    3.03076    2.05383          -0.0643226 -0.0787659    0.10838
 H               1.2737    3.57304    2.40196          0.00775741 -0.0918292   0.145489
 H               2.1984     3.0359    2.08065            0.068198  -0.234838 -0.0267784
 H              3.10488    3.57275    2.39469           -0.300656   0.220146   -0.10354
 H              4.01275    3.02674    2.07254           -0.156924  0.0916058  0.0535891
 H             0.384413    4.15014     2.0913            0.119158  0.0858512 -0.0382677
 H              1.28222    4.71464    2.37779          -0.0501715   0.106495  -0.165143
 H              2.19492    4.12358    2.11249           -0.203854  0.0819965  0.0302251
 H              3.07869    4.70599    2.35549           -0.0489724    0.245699 -0.00685387
 H              4.02503     4.1306    2.10458          -0.00111367   -0.173968    0.149532
 H             0.397657   0.299336    3.00434            -0.13367  0.0212504  0.0168422
 H              1.30157  -0.306922    3.24315           0.0115184 -0.0312718   -0.22501
 H              2.19284   0.309267    2.99955            0.115453   0.169276   0.148979
 H               3.0797  -0.283438    3.23364            0.084678  0.0266248 -0.0151672
 H              3.99778   0.281472    2.95356           0.0941184  0.0890867  0.0198981
 H              0.40626    1.37929    3.01575          -0.0530473  -0.208116  -0.104732
 H              1.30283   0.839651    3.33097           0.0829108  0.0167733   0.164622
 H              2.21082    1.39904    3.02494           0.0329104    -0.3025   0.225188
 H               3.0992   0.828179    3.31966           0.0588785   0.104153   0.183399
 H              4.00321     1.3832    3.00319           0.0644696  -0.268337  -0.153937
 H             0.392313    2.48367    3.01461            -0.17289    0.11198   0.175998
 H              1.28802    1.93485    3.36262          -0.0484556 -0.0942503  0.0399472
 H              2.20871    2.48568    3.03001           -0.0239678   0.0673826 -0.00917951
 H                3.104    1.92317    3.34364          -0.0729478 0.00588561  0.0726613
 H              3.99617    2.47654    3.03162           0.0859995 -0.0683545 -0.0245023
 H             0.371262    3.57538    3.04708           0.0695848  0.0408546  0.0816217
 H              1.28602    3.00222    3.36321          0.00938952  0.0460163  0.0392363
 H              2.18373    3.57084    3.02186           0.0205523   0.081764  -0.144055
 H              3.09936     3.0306    3.35495            0.135811  0.0989711 -0.0625531
 H              3.97476    3.57781    3.04048            0.0613671   0.0614578 -0.00875973
 H              0.42728    4.69589    3.06744           -0.129693 -0.0354913  0.0579256
 H              1.29592    4.09268    3.32152          -0.0193878  0.0368071 -0.0010691
 H              2.16278    4.70501    3.03981            0.201969   0.137431  -0.149739
 H               3.0557      4.125    3.32592           0.0247111   0.061764  -0.145322
 H              3.96302    4.71032    3.03227          0.00261609   0.157979  0.0110318
 H             0.438054  -0.313939    3.93847            -0.42078  0.0222095   0.120797
 H              1.32209   0.242641    4.24779           0.0777116 -0.0943996 -0.0568137
 H              2.19576  -0.338127    3.88191          -0.0342096  -0.116211  -0.140984
 H              3.08808    0.18901    4.21932           -0.169207  0.0828052 -0.0911806
 H              3.98775  -0.336972    3.84377            0.089293  -0.118488  0.0279954
 H             0.391223   0.816829    3.98425           -0.072359  -0.244607   0.167648
 H              1.31139     1.3501    4.32029            0.312827  -0.168003  0.0577469
 H               2.2038   0.811131    3.97385           -0.113349  0.0623703  0.0895959
 H              3.09842    1.33411    4.29217          -0.0897274  0.0538335  -0.197757
 H              3.97837   0.784322    3.93128           0.0402999  -0.054243  -0.103688
 H             0.386007    1.93573    3.98328          -0.0472243  -0.105133 -0.0532172
 H              1.30124    2.46167    4.33644            0.264312  0.0628239  0.0388675
 H               2.1975    1.91996    3.98257           0.0500335  -0.114078   0.177731
 H              3.08393    2.46318    4.30689           0.0754025 -0.0736322  -0.311789
 H              4.00491    1.92692    3.98527           0.0532227  -0.210733 -0.0281219
 H              0.42123    3.03427    4.01351           0.0271494 -0.0227402  0.0557985
 H              1.32904    3.57236    4.31934           -0.121403  0.0174083  -0.196764
 H              2.19439    3.00995    3.96719           0.0574182  -0.182816 -0.0538478
 H              3.08035    3.58487    4.29064          -0.0456285   0.167724  0.0521841
 H               3.9998    3.02399    3.99087              -0.121  -0.045369  0.0470667
 H             0.444514    4.15103    4.02489          -0.0938455  -0.148858  0.0900252
 H              1.43142    4.95571    3.91868            0.044269  -0.308016   0.280573
 H              2.19133    4.11592    3.97683           0.0334294 -0.0171103  -0.274364
 H              2.87588    4.99109    3.89671           -0.182896 -0.0405819  -0.090733
 H              3.94014    4.15001    3.98796           0.0701226  0.0561738  0.0801526
