125

 H             0.859036  -0.642985   0.523788            0.261784  -0.357388   0.256791
 H              1.37093   0.313393   0.458298           0.0103308  -0.253644  -0.111925
 H              2.11082  -0.528375   0.558098             0.15433   0.232172  -0.196653
 H              3.04965   0.246109   0.457165             -0.21706 -0.00502168  -0.0588714
 H              3.54386  -0.747113   0.645711           0.0947561   0.244349 -0.0745041
 H             0.464459   0.831839   0.111122            0.111719 0.00791296 -0.0348359
 H              1.32801    1.43265   0.467823          -0.0195312 -0.0603497   0.140432
 H              2.21842   0.862968   0.132615           -0.130372 0.00755389  0.0734305
 H              3.10256    1.39598   0.474467           -0.015415 -0.0237747  0.0692816
 H               3.9525   0.806328   0.144786           -0.163248  -0.277435 -0.0395653
 H             0.426576    1.95997   0.117738          -0.0775376 -0.0147222  0.0890524
 H               1.3176    2.53245   0.476539           0.0190616 -0.0913306  -0.097049
 H              2.22739    1.98284    0.16765          -0.0414479   0.208495 -0.0482344
 H              3.11275    2.50706   0.500321          -0.0805017  -0.116638  -0.127488
 H              3.97478    1.95065    0.11802          -0.0401599  -0.182395   0.356547
 H             0.403476    3.07869   0.189264           0.0858019   0.065342  0.0164914
 H              1.33168    3.61397   0.506086           0.0268396   0.139352   0.174389
 H              2.23067    3.07752    0.16504          -0.0479603 -0.0929699  -0.175573
 H              3.11428    3.61138   0.507166            0.055142   0.145445   0.162001
 H              3.98529    3.07408   0.147108            0.166111  -0.138623 -0.0157727
 H             0.421499    4.18747   0.204559           -0.176604  -0.149518 -0.0581236
 H              1.33036     4.7248   0.524941          0.000471016    0.341539   -0.277884
 H              2.22717    4.19456   0.196739           -0.043971 -0.0582139  -0.159185
 H              3.10238    4.75309   0.514728          -0.0439226   0.197008 -0.0240472
 H              4.01395    4.20217   0.229219            0.121962   0.183185 -0.0649142
 H             0.446053   0.287579    1.09165          -0.0922287 -0.0162002   0.128603
 H              1.37205  -0.252591    1.40581           0.0648182   0.126473   0.215508
 H              2.20548   0.364764     1.1344          -0.0605135  0.0722891   0.064471
 H              3.02123  -0.263342    1.45285           -0.147713  -0.234392   0.039378
 H              3.93293   0.249168    1.09787           0.0072951   0.233095  -0.129165
 H             0.407491    1.40333    1.08208           -0.210115  0.0750371  -0.142241
 H               1.2898   0.875659    1.40889            0.131653   0.088514  -0.145021
 H              2.20113    1.41764    1.12143           -0.145626  0.0174206   0.136566
 H              3.10973   0.868135    1.42064          -0.0554279   0.167465  0.0618199
 H              4.02461    1.39687    1.10698           0.0257549 -0.0777993 -0.0659507
 H              0.40938     2.5023    1.10844            0.314741   0.168347   0.220117
 H              1.29849    1.97172    1.43496           -0.106598 -0.0253832 -0.0610757
 H              2.19906    2.50291    1.11604            0.013473  -0.163185  0.0623639
 H              3.10442     1.9634    1.44585          -0.0253126  0.0746966  0.0690832
 H              4.01132    2.50932    1.10351           -0.116737  0.0974604   0.328203
 H             0.430755     3.6033    1.17095           -0.186796  -0.120391  -0.038993
 H              1.30555    3.03572    1.46078          -0.0186436  -0.067384 -0.0911958
 H              2.20939     3.6099    1.13506           0.0557842  0.0435908  -0.139022
 H              3.10273    3.05086    1.44806          -0.0613997   0.068212  -0.169524
 H              3.99952    3.61238    1.13612          -0.00341979  -0.0486882    0.147071
 H             0.436921    4.74214     1.1689             0.11257  -0.133789   0.195495
 H              1.31093    4.13527    1.45912          -0.0538971  0.0384527  -0.252921
 H              2.21381    4.74514    1.19761            0.105414  -0.141395  -0.152584
 H              3.07403    4.14455    1.46011           -0.122393   0.149221  0.0652837
 H              3.94491    4.73691    1.21123             0.29937  0.0282088 -0.0761336
 H             0.478308  -0.276076    2.06203           -0.124481 -0.0828721   -0.14184
 H              1.30816   0.349588    2.36283           0.0665412  -0.248554  -0.168775
 H              2.18017  -0.254672    2.12364            0.138773 -0.0870504   0.118341
 H              3.08999   0.329576    2.35279            0.0327654   0.0588429 -0.00176681
 H              3.93329  -0.320545    2.07887           -0.0464436   0.0651554 -0.00645961
 H             0.377007   0.851116    2.04226          -0.0900231 -0.0316458 -0.0804563
 H               1.2868    1.41509    2.39026           -0.182618   0.156897  0.0523481
 H              2.20825   0.871436    2.06252          -0.0391278  -0.131603  0.0203452
 H              3.11302    1.40609    2.38048            0.016094 -0.0500155 -0.0421531
 H              4.01455   0.822919    2.03779            -0.20128  -0.308956   0.118607
 H              0.39333    1.95225    2.06308           -0.219175   0.130768 -0.0208774
 H               1.2883    2.47827    2.40767            -0.19633  -0.125884  -0.117783
 H              2.19512     1.9393    2.07094           -0.104028   0.198982 -0.0327446
 H              3.08741    2.49661    2.39518          -0.0434238  -0.079033  -0.139227
 H              4.01587     1.9513    2.06417          0.00337056 -0.0388033    0.01398
 H             0.395431    3.03126    2.10284           0.0716882 0.00576785    0.19174
 H              1.30346    3.57475    2.38983            0.162101   0.110985 -0.0160479
 H              2.19544    3.03539    2.08096           -0.241913 -0.0587078 -0.0800989
 H              3.08067     3.5929    2.37194            0.152593  -0.152528   0.190345
 H              3.97974    3.04432    2.08808          -0.0859703  0.0198882 -0.0328985
 H             0.404994    4.13509    2.12188             0.12192  0.0439823   0.170961
 H              1.30074    4.72685     2.4055            0.113636  -0.047628   0.257337
 H              2.18605     4.1392    2.10823              0.20347   0.0455996 -0.00480581
 H              3.07177    4.72813     2.3643          -0.0821832  0.0457073  0.0248381
 H              3.96685    4.13908    2.10838           -0.372643   0.288622 -0.0254034
 H             0.392342   0.276745    3.01792           0.0156525  0.0523273  -0.130546
 H               1.2932  -0.287877    3.22316          -0.0593372   0.100416   0.060267
 H              2.19798   0.308852    3.01586            -0.13014  -0.087724  -0.214202
 H              3.10204  -0.308673    3.21734           0.0774596  -0.173973  0.0358276
 H              4.01036   0.289554    2.98286          -0.0223789  -0.114767   0.258796
 H              0.40578    1.38632     3.0229          -0.00357755   0.0261468    0.109223
 H              1.29074   0.829233    3.34003          -0.0616976 -0.0763996  -0.155734
 H              2.19081    1.39481    3.01669          -0.0341672  -0.121846  -0.323157
 H              3.10759   0.838143    3.30152           0.0854738 -0.0172108 -0.0429178
 H              4.00044    1.38592    2.99562           0.0419163   0.174869    0.15749
 H             0.395539    2.47322     3.0484            0.228782  -0.151982   0.101501
 H              1.31317    1.92622    3.35003           -0.016084   0.106851  -0.020181
 H              2.19467    2.45545    3.02918          -0.0873662  0.0678311   0.036835
 H               3.1012    1.93116    3.32155           0.0367107 -0.0382012  -0.144821
 H               4.0071     2.4749    3.03111          -0.0490683   0.139303   0.119235
 H             0.389867    3.57885    3.05217           0.0954761  -0.113844  0.0811139
 H               1.3053    3.01556     3.3497          -0.00793498   -0.139192  -0.0231492
 H              2.19784    3.54959    3.03106           0.0826404 -0.0255516 -0.0401587
 H              3.09123     3.0265     3.3206           0.0162518  0.0280724 0.00752788
 H               4.0131    3.58304    3.05354            0.197757 -0.0688441  0.0263059
 H             0.416097    4.70137    3.07076           0.0431786   0.100761 -0.0150996
 H              1.30132    4.10225    3.30643            0.129497   0.164636  -0.172152
 H              2.19053    4.71784    3.03701          0.00751474 -0.0941392   0.095251
 H              3.09387    4.11568    3.29529          -0.0720245 -0.0193229   0.272225
 H              3.93722    4.73627    3.04528          -0.0904025   0.169132  0.0365208
 H              0.37149  -0.307055    3.93684           -0.148418 -0.0405297 -0.0789338
 H              1.31201   0.199581    4.23344           -0.154628  -0.200708  -0.055622
 H              2.18916  -0.348019    3.87648              0.14475 -0.00731466   0.0890051
 H              3.08797   0.233971    4.21608            0.255467   0.131518 -0.0696202
 H              3.99589    -0.3458    3.87632          -0.0878449  0.0990369   0.249021
 H             0.416876   0.800348    3.99213            0.169914  0.0649276  -0.075317
 H              1.30363    1.35308    4.31326           -0.177051  0.0332494 -0.0842271
 H              2.20655   0.802978    3.97665          -0.0770631 -0.0136072 -0.0281332
 H              3.10582    1.35609    4.28051            0.126359 -0.0260488  0.0395049
 H              4.01663   0.782026    3.95814            0.129233 -0.0523927   0.233016
 H             0.421705    1.89289    3.98605            0.333078  -0.104125   0.139618
 H              1.32531    2.46107    4.31622            -0.14554 0.00690637   -0.26933
 H              2.20828    1.90495    3.98303            0.109428  0.0946812  -0.138476
 H              3.11034     2.4657    4.27851           0.0200365   0.030998  0.0491205
 H              4.00362    1.87168    3.95829           0.0264675  0.0594901  -0.186688
 H             0.401632    3.01207    4.00372          -0.0239156  -0.176794  -0.109433
 H              1.32257    3.57928     4.2954            0.0731708 -0.00196431  -0.0259966
 H              2.20948    3.01406    3.97774           0.0192031  0.0206742  0.0394993
 H              3.06506    3.58659     4.2976             0.06431 -0.0192746  -0.147201
 H              3.97834     3.0327    3.99496          0.00880582  0.0806498 -0.0949274
 H             0.437293    4.14624    4.01836           0.0158799  0.0913742  -0.152366
 H              1.44628     4.9165    3.98105           0.0367414 -0.0566111   0.308382
 H              2.19402    4.12077    3.94367            0.175132 -0.0738637  0.0407113
 H              2.84441    4.99892    3.88313           -0.0241236 -0.00305413   -0.109413
 H              3.94975    4.17474    3.99162          -0.0814614  0.0773124   0.030373
