125

 H              0.78893  -0.609766   0.535048           0.0831614   0.105544   0.170745
 H              1.32311   0.337465   0.468045           -0.109448  -0.251506   0.061438
 H              1.97936   -0.53819   0.531344           -0.173329   -0.19426  0.0926023
 H              3.04672   0.281746   0.470709           -0.115145 -0.0681656   0.182519
 H              3.66098  -0.657052   0.526139          -0.0931755  -0.161586    0.12819
 H              0.44918   0.844278   0.120861            0.204982    0.10151  0.0239938
 H              1.31323    1.42444   0.465769            0.0573997 -0.00613736 -0.00389474
 H              2.18906   0.867382   0.127124          -0.0765909 -0.0159481   0.021401
 H              3.07467    1.41848   0.457548           -0.113968  0.0912686   0.126562
 H              3.93387   0.857832   0.106734            0.325098 -0.0186943  -0.137438
 H             0.397986    1.97541   0.171533           -0.268019  0.0481472   0.265667
 H              1.30378    2.50861   0.498433           -0.126238 0.00495686   0.170229
 H              2.20381    1.96778   0.142096            0.179463  0.0654511  0.0986599
 H               3.0824    2.51773   0.478581            0.167268 -0.0469677  0.0015101
 H              3.96636    1.96766   0.138591           0.0794928  0.0319039 -0.0108241
 H             0.414165    3.08853   0.174528          -0.0622186  0.0440629 -0.0741924
 H              1.31624    3.61271   0.511236          -0.0699371   0.051333  0.0203882
 H              2.19644    3.07351    0.15646           0.0532673  0.0251173 -0.0212748
 H              3.09221    3.60826   0.529566            -0.104431 -0.00586713   0.0124604
 H              3.99209    3.08759   0.201365            0.255204   0.157749  -0.163719
 H             0.441886    4.20565   0.221691           0.0891618  0.0299453   0.202182
 H              1.34674    4.73846     0.5443          -0.0738073   0.233286   0.163212
 H              2.20911    4.18646    0.20146           0.0166699   0.181923 -0.0119336
 H              3.08982    4.74748    0.56513          -0.0815549  0.0762628 -0.0674373
 H              3.97813     4.1862   0.227543          -0.00879263   0.0351508    0.101376
 H             0.396148   0.285677    1.07744           0.0683972   0.344261 -0.0307866
 H              1.33262  -0.236261    1.42206           -0.155401  -0.228048  0.0615939
 H              2.20616   0.342989    1.13396          -0.0386399   -0.14967  0.0351284
 H              3.06794   -0.25999    1.42768             0.189429  -0.0787154 -0.00122712
 H              3.97936   0.279268    1.07236           -0.082515  -0.169056  0.0803389
 H             0.399194    1.38939    1.10001          -0.0188342    0.15935  -0.245743
 H              1.30035   0.860871    1.41751           -0.166184  -0.209699   0.101068
 H              2.20647    1.41803    1.11496           -0.137244   0.146662    0.12892
 H              3.11567   0.866407    1.39893          -0.0403486   0.065724  -0.254846
 H              4.01377    1.39248    1.06908            0.0585524 -0.00701267   -0.105158
 H             0.402244    2.50806    1.13007            0.152467 -0.0788246  -0.125722
 H              1.31248    1.93812    1.43957           0.0280557   0.328338  -0.194563
 H              2.19761    2.49789    1.12302            0.069136  -0.111839  0.0978193
 H              3.10601    1.95209    1.43402            0.153738  0.0888951   0.082743
 H              3.99466    2.47574    1.12294            0.167426 0.00692894 -0.0243887
 H             0.424892    3.61198    1.13587           -0.047118  0.0267172 -0.0522578
 H               1.3021    3.03743    1.45306           -0.053165  -0.113946 -0.0104272
 H              2.19463    3.57986    1.15354            0.211859  -0.142008  -0.204701
 H              3.09778    3.02403    1.46515           0.0228832  0.0375217   0.120792
 H              3.99342    3.59518    1.16419           -0.199703   0.162789   0.171296
 H             0.424073    4.73008    1.19449           0.0406354  -0.125048  -0.144491
 H              1.30239    4.13355     1.4568           0.0728044 0.00141306   0.247881
 H              2.23068     4.7063    1.22424           -0.152175  -0.273971  -0.195467
 H              3.10111    4.11376    1.47868          -0.0989091  0.0959064   0.123264
 H              3.98921    4.73113    1.17082           0.0510315    0.14252  0.0196799
 H             0.427935   -0.27231     2.0349           -0.157504  0.0196038  0.0259186
 H              1.31451    0.29581    2.35963            0.208175   0.118871 -0.0221102
 H              2.21061  -0.281593    2.07797           -0.130197 -0.0450094  -0.165068
 H              3.09173   0.301775    2.35865          -0.0922318   -0.14402  -0.031461
 H              3.98125  -0.282234    2.06893          -0.0310622 -0.0768694  -0.132335
 H             0.384577   0.824925    2.05413           0.0227779 0.00941122   0.131599
 H              1.32137    1.38546    2.37979             -0.1665  -0.123185   0.181277
 H              2.20876   0.844539    2.06223           0.0658187  0.0376736  0.0824032
 H              3.10299    1.39282    2.36698            -0.11982  0.0175134  -0.194552
 H              3.98884   0.855392    2.03403           0.0266061  0.0050927  -0.225932
 H             0.405555    1.93402     2.0622           -0.187191 -0.0208266  -0.162298
 H              1.30513     2.4713    2.38512           0.0988064   0.162783  -0.195689
 H              2.21394    1.95166    2.08618           0.0765239  -0.122591  -0.124526
 H               3.1133    2.46846    2.39451           0.0193963  -0.157305   0.253777
 H              4.02494    1.93912    2.07027           0.0338244   0.299488 -0.0659797
 H             0.392016    3.04096    2.07914           -0.127885  -0.286486 -0.0913022
 H              1.30924       3.56     2.3869            0.153355  0.0672845 -0.0660916
 H              2.20753    3.02069    2.09998           0.0710538   0.015106 0.00947092
 H              3.11041    3.57181     2.4056          -0.0134016 -0.0572386  0.0149293
 H              4.04041    3.05232    2.10237             0.112365    0.128948 -0.00281139
 H             0.411022    4.12197    2.12183            -0.137086   -0.042172 -0.00113777
 H              1.32215    4.70183    2.36532           -0.198744   -0.11096  0.0328464
 H              2.20033    4.10542     2.1261            0.165213   0.189128   0.110143
 H              3.05074    4.70028    2.40441           0.0444789   0.100627   0.135481
 H              4.01153    4.16914    2.13303            0.127421 -0.0957605   0.135532
 H              0.40305   0.273334    2.98919           0.0457279   0.146204   0.119086
 H              1.31383  -0.278699    3.27909          -0.0906539  0.0774517  0.0188842
 H              2.19632   0.282808    3.00114           -0.028247  0.0919613   0.142046
 H               3.0847  -0.301491    3.26205          -0.0634626  0.0604595   0.193174
 H              4.00308   0.288732    2.97688            0.105659   0.239816 -0.0766892
 H             0.399743    1.37755    3.02122            0.220251  0.0930583  -0.119506
 H              1.31375   0.813781    3.32124           -0.047365 -0.0875725  -0.150245
 H              2.20988     1.3758    3.01243            0.151339   -0.11304   0.113717
 H              3.10883   0.822517    3.30543           0.0138997 -0.0619667  -0.147406
 H              3.99821    1.40192    3.00927            0.184731 -0.0324751  0.0899053
 H             0.425284    2.47503    3.01764          -0.0349988   0.229531 -0.0992053
 H              1.30705    1.91766    3.34338           0.0778049  0.0279179 -0.0279194
 H               2.2115    2.45796    3.02979           -0.179959  -0.196569 -0.0627003
 H               3.1053    1.90967     3.3306          -0.0229416  -0.113685   0.236878
 H              3.99101    2.48504    3.05085           0.0106159  -0.103018  0.0607944
 H             0.402433     3.5621    3.04299           -0.114906 -0.0723351 -0.0249226
 H              1.30794    2.99747    3.35479           -0.104499   0.130842    0.10105
 H              2.20512    3.54372    3.04321          -0.0721303  -0.226033 -0.0674344
 H              3.10118    3.00462    3.36195             0.117302  -0.0322255 -0.00510427
 H              4.00724    3.60753     3.0691          -0.0158617  0.0894365  0.0114736
 H             0.455457    4.71687    3.04018            0.189612  -0.327551  -0.179288
 H              1.31455     4.0739    3.30325           0.0427094  0.0578117  0.0427839
 H               2.1826    4.69884    3.04541           -0.289988 -0.0801796  -0.250032
 H               3.0795    4.07803    3.34549             0.01916  -0.120323 -0.0283176
 H              3.90161    4.76723     3.0875          -0.00820411   0.0252417   -0.183677
 H             0.406189  -0.324004    3.88752          -0.0933761 -0.0222537  -0.101687
 H              1.29395   0.246456    4.26329           -0.203431  -0.016736 -0.0595826
 H              2.19695  -0.292612     3.9407          -0.00969443   -0.231559  -0.0529055
 H              3.11509   0.247727    4.22438           0.0758206  -0.269074  0.0388349
 H                3.999  -0.323054    3.92389          -0.0239249 -0.0972237 -0.0673615
 H             0.396852   0.805767    3.95626           -0.133677 -0.0553141   0.035973
 H              1.32254    1.34993    4.30255          -0.0962886 -0.0836137   0.136983
 H              2.21295   0.814508    3.93883          -0.0706502  0.0468164 -0.0413692
 H              3.09052     1.3703    4.29464            0.158674 -0.0699831   0.326813
 H              4.02014   0.817776      3.985            0.195342   0.100706  -0.141184
 H             0.400516    1.90442    3.99776          -0.0370643   0.191599  0.0974004
 H              1.30295    2.45921    4.30263           -0.248415  0.0564904 -0.0387877
 H              2.19721    1.89911    3.97099           0.0882781   0.106171   0.108426
 H              3.07379    2.44715    4.30993           -0.195679 -0.0997554  -0.119285
 H               3.9855    1.91866    4.00379          0.00417994   0.276058  -0.172366
 H             0.394666    3.01842    3.99682            0.280328 -0.0908316  -0.115169
 H              1.32303    3.53913    4.30331          -0.0559568  -0.117731  0.0888164
 H              2.19696    3.00617    3.98049            0.149998 -0.0479589 -0.0751038
 H              3.08675    3.57068    4.31457            0.278919     0.2927 -0.0150041
 H              3.98149    3.02726    4.00529            0.150138  0.0683797  -0.064166
 H              0.47517    4.15744    3.98053           0.0661566 0.00736191   0.128675
 H              1.38572    5.06049     3.7392          0.00612847   0.143392  0.0353999
 H              2.17977    4.14733    3.98011          -0.0186196  -0.171286  -0.203869
 H               2.9714    5.05465    3.75669           -0.124624 -0.0611845 0.00667233
 H              3.92969     4.1789    4.02429           -0.243041   0.119297  -0.108751
