125

 H              0.80624  -0.620881   0.564226           -0.114104 -0.0175838  0.0405049
 H              1.32938   0.311389   0.462484           0.0266212  -0.046382 0.00628055
 H              2.11665  -0.536631   0.588088            0.108879  -0.149744   0.101091
 H              3.05906   0.275221   0.464234            -0.24339  0.0636668 -0.0525393
 H              3.59077  -0.662789   0.534254            0.225941 -0.0433807  -0.150942
 H             0.431169   0.835327   0.138071           0.00320584   -0.205839 -0.00285834
 H              1.32203    1.42828   0.467251          -0.0493116 0.00541134   0.200042
 H              2.21965   0.882251   0.127085          -0.0874827   0.293608   -0.26566
 H              3.09545    1.41905   0.483557              -0.1597  -0.0911668 -0.00805093
 H              3.95166   0.826736   0.109097          -0.0391153   0.272912   0.207883
 H              0.42174    1.95492   0.107109          -0.0138363  0.0839872   0.087403
 H              1.31438    2.51673   0.495295          -0.0842611   0.334484   0.145234
 H              2.20253    1.98353   0.164525           0.0842397    0.12612 -0.0388737
 H              3.11354    2.51699   0.483548           -0.113721  0.0221326 -0.0652413
 H              3.97548    1.93942   0.131548          -0.0233801   0.198957  0.0748447
 H             0.406278    3.07761   0.180959           0.0584187 -0.0029354 0.00082915
 H              1.31004    3.61666   0.514725           -0.0240252    0.155411 -0.00456898
 H              2.20611    3.08235   0.166745           -0.128394 -0.0698771  -0.108419
 H              3.09586    3.62126   0.512078           -0.060091  0.0586039  0.0751747
 H              4.04261    3.06625   0.176168           0.0866307  0.0203631 -0.0805014
 H             0.400111    4.19219   0.248174          -0.0966685   -0.20476  0.0109293
 H               1.3167    4.74977   0.560558           0.0320451 -0.0510845  0.0477511
 H              2.21988    4.18764   0.230884            0.010403  -0.117322  0.0340353
 H              3.06976    4.76502   0.549289           -0.273817 0.00271285   0.101881
 H              3.97741    4.18676   0.189218             0.24563  -0.180058    -0.1816
 H             0.432075   0.256931    1.10361           0.0276799 -0.0578412  0.0545823
 H              1.37279  -0.251631    1.40842            0.109309  0.0759008  -0.197258
 H              2.19663   0.373778    1.12797          -0.0689824   0.145188  -0.161174
 H              3.05133  -0.271499    1.40525           -0.158866 -0.0146951   0.215377
 H              3.97692   0.282651    1.08294            0.102606  -0.244168   -0.26191
 H             0.384065    1.37937    1.07954           0.0493008  0.0847862   0.350253
 H              1.30043   0.879077    1.41049          -0.0661308  -0.198193  0.0823797
 H              2.20152    1.43548    1.11389          -0.00514938    0.257486   -0.240184
 H              3.11679   0.853291    1.41544            0.329431   0.192892  -0.101731
 H              3.98459    1.38715    1.10268           0.0686894    0.09002  -0.026997
 H             0.397197    2.49562    1.10545           0.0678688  -0.165431  0.0299359
 H              1.30628    1.94758    1.42235           0.0136384  -0.107295  0.0161654
 H              2.20931    2.51873    1.11521           0.0389133   0.153475   0.118422
 H               3.1089     1.9443    1.45391          -0.0753279 -0.0636988 -0.0548933
 H              4.00614    2.48901    1.12052          -0.0417903  0.0785634  0.0768594
 H             0.395648    3.62317    1.17119          -0.0472892 -0.0512543  -0.165833
 H              1.29178    3.03077    1.45464           -0.158807   0.178129 -0.0436697
 H              2.20038    3.57826     1.1563           0.0159731  0.0194513   0.192375
 H              3.09123    3.03337    1.44451             0.13344  0.0273537   0.250572
 H              3.99866    3.59554    1.14636          -0.0598621  -0.203782  0.0899673
 H             0.433273    4.74285    1.20664          -0.00179067   0.0421197   0.0117272
 H               1.3191    4.12012    1.47775            -0.12188  0.0785905  0.0737958
 H              2.18969    4.72016    1.22166            0.245369  -0.219378 0.00323762
 H              3.08834    4.14436       1.46          -0.00801989    0.386819  -0.0723005
 H              3.99819    4.71945      1.171            0.112108  -0.149041  -0.282754
 H             0.501111  -0.349903    2.03858           -0.137904   -0.16922 -0.0284278
 H               1.3178   0.329286     2.3619             0.18861 -0.0203695   0.206579
 H               2.2047   -0.27057    2.10447          -0.0869981 -0.0747382   0.110378
 H              3.10486   0.305884    2.34468          -0.0458083  -0.126007  -0.235194
 H              3.98666  -0.269577    2.02278           -0.031551  0.0182209 -0.0723534
 H             0.404345   0.825881    2.04806           -0.390804  0.0517196  0.0640377
 H              1.29961    1.39908    2.36799          -0.0219482 -0.0648123 0.00362574
 H                2.219    0.85143    2.07046           0.0145717  0.0222473  0.0956787
 H              3.10735    1.40251    2.38199           -0.103048  0.0987925  -0.064474
 H              4.00759    0.84393    2.05036            0.164859 -0.0596977   0.292979
 H             0.409083    1.93396    2.04746           -0.145134  0.0151464   -0.32399
 H              1.29443    2.48883    2.38692           0.0829152 -0.0524235  0.0083623
 H              2.19168    1.94048    2.06108           -0.126864  -0.148425   0.178745
 H              3.09519    2.47504    2.41063           0.0110971  0.0623483  0.0226046
 H              4.02339    1.93411    2.05591          -0.00232853    0.354163   0.0778367
 H             0.400859    3.03549    2.09299          -0.0597934   -0.11646  0.0476071
 H              1.30315    3.56142    2.40546           0.0145276   0.167674  -0.233503
 H              2.18476     3.0102    2.08238           0.0970264 -0.0982458  0.0603792
 H               3.0863    3.55468    2.39543            0.197974  -0.186325  -0.114361
 H              3.98802    3.03057    2.10867           0.0711622  0.0737631  0.0429967
 H             0.422325    4.14517    2.14455           0.0764276 -0.0889594   -0.27271
 H              1.35471     4.7166    2.38944          -0.0220051  -0.082676   -0.12467
 H              2.20222    4.09392    2.11608           -0.102796 -0.0494151 -0.0474789
 H               3.0759    4.73261    2.38839           0.0310747  -0.133954   0.132087
 H              3.97146    4.13331    2.11565            0.108628  0.0998075  0.0333474
 H             0.382389    0.29122    2.97686          -0.0361771  -0.110968  -0.144869
 H              1.30375  -0.271848    3.25128          -0.0828734  0.0961083  0.0208393
 H              2.21665   0.293184    3.01328          -0.0135461 -0.0771287  0.0193026
 H              3.10458  -0.298488     3.2368           0.0244798  -0.212739 -0.0297999
 H              4.00242   0.292371    2.99554             0.20463 -0.0270542  0.0483526
 H             0.388156    1.37834    2.98829           0.0160183  -0.101541  -0.118877
 H              1.29396   0.826175    3.31603            0.268955   -0.28249  0.0751628
 H              2.20577    1.38375    3.00569           -0.254584 -0.0117285   0.113739
 H              3.09059   0.846742    3.31454           -0.097876  0.0670867 -0.0088074
 H              3.98778    1.37785    3.02442           0.0911697   0.013704  0.0931064
 H             0.398264    2.47482    3.03316           -0.110746  0.0696021  -0.128696
 H              1.28317    1.90962    3.32312          -0.0571266 -0.0932258   0.143586
 H              2.19437    2.46573    3.02989            0.141152 -0.0105357   0.176345
 H              3.08262    1.91856    3.34684           -0.180466  0.0339476  0.0340562
 H              3.97877     2.4821    3.03674           -0.141014    -0.2224  0.0797695
 H             0.389992    3.58507    3.06762           -0.034844  0.0189817  -0.159778
 H              1.29483    3.00343    3.36195            0.228291  0.0359124 -0.0592404
 H              2.19436    3.55274    3.04681           0.0598634  0.0206813  -0.122131
 H              3.08967    3.01858    3.36516            0.038862   0.194583 -0.0873565
 H              4.01074    3.58305    3.05153              0.21306  -0.0923971 -0.00487846
 H             0.491891     4.7514    3.05145           0.0229305   0.231336  -0.227265
 H              1.29555    4.07655     3.3369           0.0776056   -0.16602  0.0269012
 H               2.2123    4.68023    3.04473           0.0258922   0.110188   -0.13884
 H              3.09006     4.0724    3.31711           -0.119065  -0.102762 -0.0506801
 H               3.9394    4.73733       3.06          -0.0947412 -0.0147587 -0.0896594
 H             0.404383  -0.310469    3.92098           0.0381075 0.00244928 -0.0484037
 H               1.2976   0.235462    4.26666           0.0894561 -0.0655267  -0.143923
 H              2.21276  -0.303058    3.90521            0.210335  -0.237994  0.0392145
 H              3.08124   0.257942    4.24505          -0.0764055   0.169701  0.0125512
 H              4.00783   -0.32569    3.89111           -0.169972 -0.0306169   0.261507
 H             0.402985   0.804533    3.95422          -0.0433038   0.139692 -0.0118662
 H              1.31596    1.33877    4.30706          -0.0778465  0.0726127  -0.159074
 H              2.18853   0.808478    3.95661              0.0168  -0.105206  0.0361388
 H              3.06952    1.36028    4.27526             0.301607 -0.00685626   -0.153526
 H              4.00487   0.794495    3.97868           0.0417904 -0.0914308  -0.245013
 H             0.412463    1.89232    3.98105            0.138089 -0.0113808  0.0749287
 H              1.29527    2.44802    4.31897           0.0426565  0.0973969   0.153142
 H              2.17889     1.9087    3.95593           -0.069446 -0.0721413 -0.0914083
 H              3.07049    2.44184    4.31468           -0.171875  0.0522854 -0.0223562
 H              3.98796    1.92977    3.97842           -0.020543 -0.0303514  0.0287188
 H             0.399007    3.00202    4.00312          -0.0254138   0.270397 -0.0114585
 H              1.31511    3.58057    4.31525          -0.0293517   0.090447    0.15552
 H              2.19044    3.02493     3.9946           -0.145226   0.198857  0.0975301
 H              3.08053    3.57765    4.30668            0.198382 0.00780438  0.0359662
 H              3.97814    3.02564      3.997            0.0638116  -0.0544334 -0.00866275
 H             0.448109    4.17993    4.02432            0.276045 -0.0697114   0.176127
 H              1.40205    5.09572    3.67918            -0.227642    0.127517 -0.00488214
 H              2.18932    4.15381    3.96461          -0.00630103  0.00350757   0.0114893
 H              2.99649     4.9819      3.851          -0.0864516 -0.0589593  0.0267254
 H              3.94579    4.16827    3.99936            -0.11019 -0.0508284   0.339078
