125

 H           0.00672625 0.00672625 0.00672625            0.269761   0.269761   0.269761
 H              1.10691  0.0185551  0.0185551            0.156529   0.160668   0.160668
 H                  2.2  0.0260683  0.0260683          -1.09349e-14     0.205375     0.205375
 H              3.29309  0.0185551  0.0185551           -0.156529   0.160668   0.160668
 H              4.39327 0.00672625 0.00672625           -0.269761   0.269761   0.269761
 H            0.0185551    1.10691  0.0185551            0.160668   0.156529   0.160668
 H              1.11202    1.11202 0.00883032          -0.0330771 -0.0330771  0.0986845
 H                  2.2    1.11997  0.0350379          1.72874e-13   0.0195791    0.263243
 H              3.28798    1.11202 0.00883032           0.0330771 -0.0330771  0.0986845
 H              4.38144    1.10691  0.0185551           -0.160668   0.156529   0.160668
 H            0.0260683        2.2  0.0260683             0.205375 -1.5351e-14    0.205375
 H              1.11997        2.2  0.0350379            0.0195791 1.79292e-13    0.263243
 H                  2.2        2.2  0.0619265          -2.57013e-13 -2.42432e-13     0.381995
 H              3.28003        2.2  0.0350379          -0.0195791 1.6193e-13   0.263243
 H              4.37393        2.2  0.0260683             -0.205375 -1.30778e-14     0.205375
 H            0.0185551    3.29309  0.0185551            0.160668  -0.156529   0.160668
 H              1.11202    3.28798 0.00883032          -0.0330771  0.0330771  0.0986845
 H                  2.2    3.28003  0.0350379          1.47089e-13  -0.0195791    0.263243
 H              3.28798    3.28798 0.00883032           0.0330771  0.0330771  0.0986845
 H              4.38144    3.29309  0.0185551           -0.160668  -0.156529   0.160668
 H           0.00672625    4.39327 0.00672625            0.269761  -0.269761   0.269761
 H              1.10691    4.38144  0.0185551            0.156529  -0.160668   0.160668
 H                  2.2    4.37393  0.0260683          -3.40761e-15    -0.205375     0.205375
 H              3.29309    4.38144  0.0185551           -0.156529  -0.160668   0.160668
 H              4.39327    4.39327 0.00672625           -0.269761  -0.269761   0.269761
 H            0.0185551  0.0185551    1.10691            0.160668   0.160668   0.156529
 H              1.11202 0.00883032    1.11202          -0.0330771  0.0986845 -0.0330771
 H                  2.2  0.0350379    1.11997          1.30215e-13    0.263243   0.0195791
 H              3.28798 0.00883032    1.11202           0.0330771  0.0986845 -0.0330771
 H              4.38144  0.0185551    1.10691           -0.160668   0.160668   0.156529
 H           0.00883032    1.11202    1.11202           0.0986845 -0.0330771 -0.0330771
 H              1.09076    1.09076    1.09076            0.166453   0.166453   0.166453
 H                  2.2    1.10764    1.10764          -4.27298e-13     0.183492     0.183492
 H              3.30924    1.09076    1.09076           -0.166453   0.166453   0.166453
 H              4.39117    1.11202    1.11202          -0.0986845 -0.0330771 -0.0330771
 H            0.0350379        2.2    1.11997             0.263243 1.55734e-13   0.0195791
 H              1.10764        2.2    1.10764              0.183492 -4.99185e-13     0.183492
 H                  2.2        2.2    1.12371          5.31733e-13 6.05327e-13    0.167616
 H              3.29236        2.2    1.10764             -0.183492 -4.66259e-13     0.183492
 H              4.36496        2.2    1.11997           -0.263243 1.5027e-13  0.0195791
 H           0.00883032    3.28798    1.11202           0.0986845  0.0330771 -0.0330771
 H              1.09076    3.30924    1.09076            0.166453  -0.166453   0.166453
 H                  2.2    3.29236    1.10764          -4.15971e-13    -0.183492     0.183492
 H              3.30924    3.30924    1.09076           -0.166453  -0.166453   0.166453
 H              4.39117    3.28798    1.11202          -0.0986845  0.0330771 -0.0330771
 H            0.0185551    4.38144    1.10691            0.160668  -0.160668   0.156529
 H              1.11202    4.39117    1.11202          -0.0330771 -0.0986845 -0.0330771
 H                  2.2    4.36496    1.11997          1.34895e-13   -0.263243   0.0195791
 H              3.28798    4.39117    1.11202           0.0330771 -0.0986845 -0.0330771
 H              4.38144    4.38144    1.10691           -0.160668  -0.160668   0.156529
 H            0.0260683  0.0260683        2.2             0.205375    0.205375 1.94575e-14
 H              1.11997  0.0350379        2.2            0.0195791    0.263243 1.50095e-14
 H                  2.2  0.0619265        2.2          -1.98714e-13     0.381995 -1.72561e-13
 H              3.28003  0.0350379        2.2          -0.0195791   0.263243 1.1816e-13
 H              4.37393  0.0260683        2.2            -0.205375    0.205375 1.56467e-14
 H            0.0350379    1.11997        2.2            0.263243  0.0195791 2.9382e-14
 H              1.10764    1.10764        2.2             0.183492    0.183492 -1.0085e-13
 H                  2.2    1.12371        2.2          4.67023e-13    0.167616 3.37337e-13
 H              3.29236    1.10764        2.2             -0.183492     0.183492 -3.92828e-13
 H              4.36496    1.11997        2.2           -0.263243  0.0195791  1.398e-13
 H            0.0619265        2.2        2.2              0.381995 -2.31395e-13 -1.64021e-13
 H              1.12371        2.2        2.2             0.167616 6.09558e-13 3.42276e-13
 H                  2.2        2.2        2.2          -5.71303e-13 -7.20957e-13 -5.28004e-13
 H              3.27629        2.2        2.2            -0.167616 5.50875e-13 5.25276e-13
 H              4.33807        2.2        2.2             -0.381995 -2.36542e-13 -2.70427e-13
 H            0.0350379    3.28003        2.2             0.263243  -0.0195791 1.22386e-13
 H              1.10764    3.29236        2.2              0.183492    -0.183492 -3.90335e-13
 H                  2.2    3.27629        2.2          4.64774e-13   -0.167616 4.81158e-13
 H              3.29236    3.29236        2.2             -0.183492    -0.183492 -4.66049e-13
 H              4.36496    3.28003        2.2            -0.263243  -0.0195791 1.78018e-13
 H            0.0260683    4.37393        2.2             0.205375   -0.205375 1.33092e-15
 H              1.11997    4.36496        2.2            0.0195791   -0.263243 1.37533e-13
 H                  2.2    4.33807        2.2          -2.27661e-13    -0.381995 -2.30631e-13
 H              3.28003    4.36496        2.2           -0.0195791   -0.263243 1.72767e-13
 H              4.37393    4.37393        2.2             -0.205375    -0.205375 -2.32762e-14
 H            0.0185551  0.0185551    3.29309            0.160668   0.160668  -0.156529
 H              1.11202 0.00883032    3.28798          -0.0330771  0.0986845  0.0330771
 H                  2.2  0.0350379    3.28003          1.08569e-13    0.263243  -0.0195791
 H              3.28798 0.00883032    3.28798           0.0330771  0.0986845  0.0330771
 H              4.38144  0.0185551    3.29309           -0.160668   0.160668  -0.156529
 H           0.00883032    1.11202    3.28798           0.0986845 -0.0330771  0.0330771
 H              1.09076    1.09076    3.30924            0.166453   0.166453  -0.166453
 H                  2.2    1.10764    3.29236          -4.42318e-13     0.183492    -0.183492
 H              3.30924    1.09076    3.30924           -0.166453   0.166453  -0.166453
 H              4.39117    1.11202    3.28798          -0.0986845 -0.0330771  0.0330771
 H            0.0350379        2.2    3.28003             0.263243 1.45407e-13  -0.0195791
 H              1.10764        2.2    3.29236              0.183492 -5.39133e-13    -0.183492
 H                  2.2        2.2    3.27629          5.18792e-13 6.41725e-13   -0.167616
 H              3.29236        2.2    3.29236             -0.183492 -5.55471e-13    -0.183492
 H              4.36496        2.2    3.28003            -0.263243 2.10158e-13  -0.0195791
 H           0.00883032    3.28798    3.28798           0.0986845  0.0330771  0.0330771
 H              1.09076    3.30924    3.30924            0.166453  -0.166453  -0.166453
 H                  2.2    3.29236    3.29236          -4.75967e-13    -0.183492    -0.183492
 H              3.30924    3.30924    3.30924           -0.166453  -0.166453  -0.166453
 H              4.39117    3.28798    3.28798          -0.0986845  0.0330771  0.0330771
 H            0.0185551    4.38144    3.29309            0.160668  -0.160668  -0.156529
 H              1.11202    4.39117    3.28798          -0.0330771 -0.0986845  0.0330771
 H                  2.2    4.36496    3.28003          1.75987e-13   -0.263243  -0.0195791
 H              3.28798    4.39117    3.28798           0.0330771 -0.0986845  0.0330771
 H              4.38144    4.38144    3.29309           -0.160668  -0.160668  -0.156529
 H           0.00672625 0.00672625    4.39327            0.269761   0.269761  -0.269761
 H              1.10691  0.0185551    4.38144            0.156529   0.160668  -0.160668
 H                  2.2  0.0260683    4.37393          -1.0113e-14    0.205375   -0.205375
 H              3.29309  0.0185551    4.38144           -0.156529   0.160668  -0.160668
 H              4.39327 0.00672625    4.39327           -0.269761   0.269761  -0.269761
 H            0.0185551    1.10691    4.38144            0.160668   0.156529  -0.160668
 H              1.11202    1.11202    4.39117          -0.0330771 -0.0330771 -0.0986845
 H                  2.2    1.11997    4.36496          1.5154e-13  0.0195791  -0.263243
 H              3.28798    1.11202    4.39117           0.0330771 -0.0330771 -0.0986845
 H              4.38144    1.10691    4.38144           -0.160668   0.156529  -0.160668
 H            0.0260683        2.2    4.37393              0.205375 -1.01417e-14    -0.205375
 H              1.11997        2.2    4.36496            0.0195791 1.74171e-13   -0.263243
 H                  2.2        2.2    4.33807          -2.34479e-13 -2.74742e-13    -0.381995
 H              3.28003        2.2    4.36496          -0.0195791 2.1328e-13  -0.263243
 H              4.37393        2.2    4.37393             -0.205375 -3.70467e-14    -0.205375
 H            0.0185551    3.29309    4.38144            0.160668  -0.156529  -0.160668
 H              1.11202    3.28798    4.39117          -0.0330771  0.0330771 -0.0986845
 H                  2.2    3.28003    4.36496          1.84352e-13  -0.0195791   -0.263243
 H              3.28798    3.28798    4.39117           0.0330771  0.0330771 -0.0986845
 H              4.38144    3.29309    4.38144           -0.160668  -0.156529  -0.160668
 H           0.00672625    4.39327    4.39327            0.269761  -0.269761  -0.269761
 H              1.10691    4.38144    4.38144            0.156529  -0.160668  -0.160668
 H                  2.2    4.37393    4.37393          -2.4375e-14   -0.205375   -0.205375
 H              3.29309    4.38144    4.38144           -0.156529  -0.160668  -0.160668
 H              4.39327    4.39327    4.39327           -0.269761  -0.269761  -0.269761
