125

 H             0.830971  -0.672606   0.554579           0.0788536  0.0310918 -0.0642861
 H              1.35781   0.303719   0.462046           -0.249526  0.0267375  -0.246951
 H              2.07213  -0.581506   0.622254          -0.0228674   0.157378 -0.0113614
 H              3.06268   0.302828   0.480551           -0.141675 -0.0871264  0.0946383
 H              3.65336  -0.619124   0.517319          -0.0669918  -0.203058 -0.0849075
 H             0.412126   0.835403    0.16874           -0.149032   0.235883  0.0309534
 H               1.2823    1.41726   0.458362             0.127616 -0.00306397  0.00828207
 H              2.19811   0.885054   0.139387            0.173813   0.307386   0.236183
 H              3.10413    1.41774   0.464245            0.171925    0.22369  -0.179232
 H              3.98175   0.797554   0.135259            0.140069 -0.0693937 0.00948054
 H             0.382703     1.9574   0.156888          -0.0587188  0.0134615  -0.015807
 H              1.29577    2.52229   0.476559             0.34571   0.139139   0.228242
 H              2.20294    1.98086   0.162795            0.138576  -0.136954  0.0846613
 H              3.11153    2.50476   0.485737           0.0468991 -0.0703574  0.0857697
 H              4.00696    1.97499   0.160042          -0.0905901  0.0128794 -0.0451784
 H             0.407037    3.06024   0.159224           0.0858291  0.0624909 -0.0833947
 H              1.29572    3.63108   0.506449             0.280244  -0.0723168 0.000914024
 H              2.18437    3.07443    0.17316          -0.00774382   -0.203329  -0.0201414
 H              3.10873     3.6187   0.491724            0.152207  0.0506586   0.264373
 H              4.00451    3.06296    0.15226           0.0178195   0.181359  0.0819354
 H             0.416412    4.20834   0.201008           -0.255451  0.0654761  0.0298471
 H              1.32258    4.74553   0.577468          -0.0144586  -0.289468  0.0947225
 H              2.20711    4.19035   0.209097          -0.00645505  -0.0341973   -0.331158
 H              3.09241      4.741   0.546895          -0.0249383  -0.171568   0.102606
 H              4.03241    4.20068   0.197192           -0.238233 0.00853097   0.106165
 H             0.451131   0.264703    1.08773           -0.321523 -0.0713498  0.0168225
 H              1.35727  -0.259305    1.41892           0.0468678 0.00802207  -0.159152
 H              2.21591   0.352922    1.13849             0.17192 -0.0764918   0.150264
 H              3.05418  -0.280583    1.39361          -0.0247908  -0.152795 -0.0586673
 H              3.97698   0.279591    1.09738           -0.254685 -0.0764183  -0.204096
 H             0.406094    1.40138    1.10579           0.0290664   0.047403  -0.146257
 H              1.31916   0.878071    1.40513          -0.0127164 0.00301447   0.166792
 H              2.19766     1.4203    1.09916           0.0674292  -0.263665    0.15092
 H              3.11565   0.862386    1.42941           0.0123903   0.183951  -0.048497
 H              4.00296    1.40039    1.09569            0.101076 -0.0448159   0.016851
 H              0.38958    2.50564    1.12407          -0.00904327   0.0354377  -0.0962782
 H              1.29934    1.96924    1.42277            0.129158 -0.0717075 0.00990314
 H              2.19158    2.50739    1.11312          -0.0643761  -0.227408  0.0391604
 H               3.1039    1.95515    1.43469           0.0365633  0.0164148  -0.115957
 H              4.00173    2.51796    1.11951          -0.0152318 -0.0425893  0.0875093
 H             0.392386    3.61945    1.14901          -0.0381673  0.0938579    0.12616
 H              1.29279    3.04073    1.44793          -0.0175887  0.0279529  -0.107954
 H              2.20614    3.60352    1.13502           -0.248382  0.0462295  -0.110078
 H               3.0966    3.04642     1.4495            0.141504  0.0689772 -0.0602929
 H              3.99436    3.61661    1.12192           0.0523952   0.118535  -0.294241
 H             0.435958    4.76515    1.20647           -0.122602  0.0549848  -0.154865
 H              1.30469    4.13992    1.47428           -0.104477  -0.177755 -0.0488817
 H              2.20854    4.69476    1.20504           0.0730923 -0.0271123  0.0637009
 H              3.09776    4.14035     1.4541            0.185348  -0.134977 -0.0164044
 H              4.00176    4.74145     1.2013          -0.0249499 -0.0330508 0.00526688
 H             0.441726  -0.295536    2.02585           0.0678577 -0.0741013   0.139199
 H              1.32633   0.319553    2.34866           0.0799292   0.151449  -0.280716
 H              2.21805   -0.27212    2.08969           -0.295501  -0.100926 -0.0144881
 H              3.11058   0.299395    2.33749           0.0163906 -0.0100709 -0.0427827
 H              3.98587  -0.295167    2.03118            0.121369  -0.288783 -0.0774791
 H             0.419741   0.830315    2.03245           -0.165115 -0.0992958  0.0260164
 H               1.3014     1.4089    2.37102           -0.0844074 -0.00417983   0.0271581
 H              2.20746   0.862196    2.08214            0.219397 -0.0192396  0.0440007
 H              3.09888    1.39583    2.38863          -0.000180146    -0.124456    0.0270196
 H              4.02155    0.82545     2.0535          -0.0737157  -0.171923 -0.0673834
 H             0.376609    1.93254    2.07498            0.164991   0.453708  0.0439462
 H              1.29906    2.48589    2.38832           -0.139461   0.188824 -0.0417178
 H               2.2053    1.94201     2.0641           0.0109838 0.00570037 -0.0212925
 H              3.10858    2.48824    2.38628           0.0618806  0.0563666  0.0891584
 H              4.00369    1.95545    2.06645            0.143519   0.102271   0.203653
 H              0.37499    3.04055    2.09161            0.244053  -0.112189   0.118409
 H              1.30687     3.5614    2.39685          -0.0278335 0.00692706  -0.145238
 H              2.18749     3.0266    2.09015          -0.0268098 -0.0159218  0.0190179
 H               3.0926    3.56947    2.39151          -0.0942668  0.0381195   -0.21943
 H              3.99969    3.03413    2.08311          -0.0470453 -0.0442162   0.204403
 H             0.404865     4.1386    2.12583           -0.143845  -0.015569  0.0449732
 H               1.3152    4.70491    2.39497           -0.109659 -0.0324865 -0.0566687
 H              2.21227    4.11687    2.10759            0.195487  -0.316395  0.0229328
 H              3.06505    4.68852    2.41033           -0.169357  0.0681939 -0.0487783
 H              3.99199     4.1344    2.10656           -0.104417 -0.0338925 -0.0711233
 H             0.392354   0.279736    2.97999          -0.0517566   0.118291  0.0094345
 H              1.29677  -0.279109    3.25603          -0.00415799   -0.105595   -0.177549
 H              2.19655   0.280873    3.00305            0.154193 -0.0316543   0.230438
 H              3.06979  -0.300419     3.2439          -0.0148841  -0.128633  -0.128713
 H              4.02103   0.248153     2.9775          0.00724795   0.207208  0.0221625
 H             0.372714    1.36249    2.99685           -0.115117   -0.18977 -0.0306261
 H              1.28113   0.835211    3.29749          -0.0474836 0.00690452   0.231735
 H              2.20247    1.39129    3.02922          -0.0729889  -0.260797  -0.112466
 H               3.1144   0.802812    3.31378          -0.0189616 -0.0810621  0.0972984
 H              4.01131    1.36394    3.01512            -0.159534 -0.00214809    0.129756
 H             0.390482    2.46978    3.03136          -0.0780547   0.116958  -0.163282
 H              1.28953    1.91362    3.32966            0.235198 -0.0193187   0.117105
 H               2.2091    2.46429    3.00723           -0.281697   0.370537   0.223663
 H                3.107    1.90593    3.33776          -0.0903261 0.00303684 -0.0276599
 H              3.97594     2.4771    3.03222           -0.104244 -0.0134986   -0.14168
 H             0.384244    3.57714    3.04594           0.0949921  0.0815922   0.116774
 H              1.29606    2.99188    3.34863           -0.066772  0.0196621     0.1264
 H              2.20445    3.54772     3.0414          -0.0830204 -0.0222208   0.061142
 H              3.09714     3.0059    3.33607            0.186773   0.110425  -0.018886
 H              3.99996    3.59755    3.06881           -0.266359   -0.19727   0.153009
 H             0.501594    4.72864    3.10122           -0.211331 -0.0744408  0.0980757
 H              1.30882    4.05387    3.34123            0.156062   0.143978  0.0756341
 H              2.16432    4.68204      3.057          0.00460223   0.213863 -0.0526942
 H              3.07204    4.08315    3.33489           -0.148554   0.161833 -0.0922649
 H              3.90513    4.73066    3.07686           0.0431346  -0.203733  0.0175301
 H             0.401671  -0.290586    3.93562            0.110452 -0.0750342  -0.153156
 H              1.30862   0.242822    4.23812           0.0216411  0.0842281   0.149938
 H              2.18315  -0.329196    3.91293          -0.00100276   0.0879437  -0.0646197
 H              3.07103   0.242735    4.23808           0.0321301   0.147285  -0.129813
 H              3.95989  -0.330835    3.97707            0.150922   0.222198 -0.0950428
 H             0.373078   0.815024    3.97504           -0.206323  -0.177642   -0.14078
 H              1.28845    1.35859    4.28183          -0.0768938  -0.081638   0.241378
 H              2.19017   0.829023    3.94609            0.284659  0.0312703  -0.186366
 H              3.11975     1.3649     4.2688            0.130492  0.0219523   0.210173
 H              4.02029   0.799001    3.96262            0.122354  -0.102911  0.0142321
 H             0.380869    1.94037    3.97159           -0.128383   0.156124  0.0203087
 H              1.29956    2.46342    4.31198           0.0421669  -0.117465  -0.193696
 H              2.19243    1.93603    3.95859            0.298261 -0.0826729 -0.0346999
 H              3.10822    2.46175    4.29986           0.0380896  -0.134863  0.0109979
 H              4.02363    1.93331    3.99074            0.182904 -0.0847369   0.162231
 H              0.41242    3.03298    3.98787          -0.0548246  0.0838013 -0.0823302
 H              1.31833    3.57119    4.32257            0.170945   0.255903   0.120142
 H              2.19903      3.019    3.98302          -0.0122039 -0.0287584  0.0444148
 H               3.0946    3.56984    4.30386            0.0860354 -0.00124747  -0.0774572
 H              3.99739    3.03851    3.99468           -0.235989   0.137042  -0.165883
 H              0.45475    4.15058    3.99875           -0.210243    0.11472  -0.042567
 H              1.38074    4.97423    3.87622           -0.0387042   0.0893761 -0.00668176
 H              2.20922     4.1389    3.99881            0.072167  -0.128245 -0.0468589
 H              2.99988     5.0503    3.72664           -0.036035   0.104355  0.0490591
 H              3.93201    4.16192    4.00684            0.125022   0.166977   0.121867
