125

 H             0.722592  -0.618863   0.545622             0.133136   -0.231539 -0.00393109
 H              1.34688   0.289747   0.454923           -0.157621  0.0876568   0.124694
 H              2.21469  -0.578443   0.649303           -0.207979  0.0858989  -0.234933
 H              3.04613   0.291654   0.432864            0.186051  -0.131265 -0.0986553
 H              3.59098  -0.664332   0.524482           -0.204699  -0.195257   0.161415
 H             0.420797   0.829151   0.152559            0.302873  -0.275939  -0.259552
 H               1.3279    1.40818   0.476046           0.0703429  0.0237196  -0.106314
 H              2.21707   0.888963   0.121749          -0.0530007 -0.0378235  0.0206253
 H              3.09025    1.41497   0.491813             0.15403   0.213478  -0.201183
 H              3.93325   0.859855   0.128224           0.0161542   0.155485  -0.268544
 H             0.404564    1.96124   0.134771           0.0601588  0.0298755  0.0684254
 H              1.30827    2.50396    0.48112            0.208483  -0.179801 -0.0569316
 H               2.2137    1.98599    0.14057            0.185458   0.095911  0.0769515
 H              3.11538    2.53204   0.493951          -0.0393682   0.341468  0.0813574
 H               3.9906    1.96429   0.177396           -0.305249   0.152467   0.119792
 H              0.41037    3.06566   0.159776            0.279572 -0.0705192  -0.132671
 H              1.31063    3.59573   0.514422           -0.102278  0.0919504   0.150756
 H              2.20019    3.06985   0.149732            0.195021 -0.0305124   0.126465
 H              3.08789    3.61495   0.488673           -0.135158 -0.0749367 -0.0925458
 H              4.03229    3.08443   0.185388           0.0867421  0.0461665  -0.235625
 H             0.424012    4.18609   0.197368            0.153129  -0.143166   0.192865
 H              1.30665    4.73616   0.539941          0.00846735  -0.146408 -0.0340567
 H              2.20173    4.17687    0.20918           -0.163034  0.0629923  0.0468384
 H              3.08109    4.73127   0.550456           -0.222104 -0.0739802 -0.0420499
 H              3.97546    4.21004   0.219954          -0.0827074   0.122832  -0.194505
 H             0.424672   0.282788    1.10479          -0.0121743 0.00412427  0.0622421
 H              1.35788  -0.293771    1.39769          -0.0433396 -0.0947644  -0.202415
 H              2.18973   0.356603    1.11748          -0.0118943 -0.0120847 -0.0222422
 H              3.05251  -0.264597    1.38137          -0.0104191   0.182117   0.202981
 H              3.99071    0.24763    1.08528           0.0543668   0.138591  -0.141328
 H             0.416712    1.40516    1.09004           -0.155742  0.0717529    0.12136
 H              1.29379   0.856793    1.39893          -0.0885527  0.0325761 -0.0252082
 H              2.19203     1.4249     1.1091            0.322452  -0.183204  0.0473953
 H              3.09167   0.846486    1.39997           -0.142937 -0.0231303  0.0980181
 H              3.99948    1.37854    1.10458           0.0455754  -0.036748  0.0687977
 H             0.401967    2.51907    1.10193           0.0445789   0.337381    0.12515
 H              1.31666    1.94384     1.4269           0.0278528  0.0578641  0.0722105
 H              2.22167    2.51383    1.11926           -0.214169 -0.0744452   0.285807
 H               3.1056     1.9504    1.43517           0.0572838   0.116755  -0.147028
 H              4.00366     2.4931    1.14208           0.0939197  -0.280237 -0.0572055
 H             0.420025    3.60597    1.14322           -0.298108  0.0169368  -0.103502
 H              1.29343    3.03592    1.43801           0.0651593  0.0802324 -0.0804799
 H              2.19872    3.58671    1.14081          -0.0359916  0.0801812 -0.0115124
 H              3.08971    3.04698    1.45752          -0.0543262 -0.0486714  -0.105434
 H              3.98937    3.60965    1.15039           0.0431835  0.0546575   0.226584
 H             0.419416    4.70408     1.1755           0.0278908 -0.0892273  0.0468958
 H              1.32766    4.13237    1.48225            -0.232791   0.0477688 -0.00180947
 H              2.18436    4.73249    1.20486           -0.087872  -0.177145 -0.0686023
 H              3.07612    4.14143    1.46368            0.242579 -0.0587461 0.00768105
 H              3.97025    4.73223    1.21156           0.0179091   0.259066  -0.119719
 H              0.44362  -0.279583    2.04258          -0.0885537  -0.173047  -0.027825
 H              1.31623   0.308183    2.34483          -0.0799907 -0.0701469  0.0613823
 H              2.19247  -0.271188    2.06303           -0.112562  -0.104063  0.0182009
 H              3.08006    0.28723    2.32962            -0.229941   -0.136886 -0.00739749
 H              3.93042  -0.332047    2.05468           -0.118166 -0.0262138  -0.118268
 H             0.401557   0.835352     2.0432           0.0706648  -0.206872 -0.0184723
 H               1.3032    1.40261    2.36462           -0.144877 0.00277785    0.10858
 H              2.19982   0.862344    2.04768           0.0590799  0.0676522  0.0932579
 H              3.10693    1.40248    2.37942            0.137111  0.0405724 -0.0355409
 H              3.98328   0.810636     2.0326          -0.0847966  0.0600546   0.130154
 H             0.400559     1.9341    2.05325            0.133497  0.0538522  -0.250768
 H              1.28927    2.47131    2.37838           -0.185858  -0.018364   0.113654
 H              2.19606    1.96069     2.0617          -0.0213441   0.195983    0.24332
 H              3.11136    2.47714    2.39237          0.00304025 -0.0121542 -0.0594956
 H              4.01644    1.91505    2.06068             0.12964 -0.0130491   0.163958
 H              0.38095    3.03481    2.07192          -0.0570582   0.101259  0.0479834
 H              1.29416    3.55395    2.38975            0.165273  -0.237688  0.0779639
 H              2.20906    3.02974    2.07511          -0.0399912   0.181753 -0.0399347
 H              3.10039    3.56132     2.3954            0.102855 -0.0786173  0.0249117
 H              4.03058    3.03115    2.08396          -0.0704097  0.0631752  0.0898282
 H             0.412776    4.14477    2.11073          -0.0630377  -0.275323   0.103893
 H              1.33816    4.70008    2.40173            0.117293  0.0411302   0.180234
 H              2.21373    4.11321    2.11165            0.084563  -0.138924   0.143013
 H              3.06841    4.71042    2.40793            -0.15296   0.063808  0.0781864
 H              4.00857    4.12511    2.11244          -0.0428569  0.0570444   0.241159
 H             0.394049   0.269681    2.99477           0.0709491   0.100215  0.0525606
 H              1.30711  -0.263958    3.25475           0.0754122   0.199577 -0.0751354
 H               2.2085   0.309524    3.00187           0.0845414  0.0698027  -0.118984
 H              3.08356  -0.291277     3.2671            -0.06018 -0.0166172  0.0766956
 H              3.99699   0.279127    2.98318           -0.150961  -0.207851  0.0217539
 H             0.403093    1.39717    3.02236          -0.0477195  0.0979495 -0.0422562
 H              1.30583   0.836956    3.31435           -0.0977869 -0.00716672    0.126479
 H              2.19575    1.38989    2.99422            0.187375  -0.171913  -0.257645
 H              3.10645   0.823171    3.31417          -0.0839366  -0.207895   0.270171
 H              4.00743    1.37656    3.01452           -0.113203  0.0429632   0.132199
 H             0.387946    2.48055    3.01806           0.0684009  0.0108128  -0.143702
 H              1.29258    1.92677    3.32909            0.196318  0.0787466  0.0550204
 H              2.19605    2.47397    3.00762            -0.105072 -0.00500849    -0.02334
 H              3.09649    1.91785    3.33425            0.166157 -0.0854243 -0.0813642
 H              3.99782    2.48946    3.03621            0.153614 0.00935962  -0.214442
 H             0.375615    3.58556     3.0463            -0.11013 -0.0837717  -0.182778
 H              1.30955    3.00647    3.34352           0.0262734  -0.256368  0.0575896
 H              2.20635    3.56279    3.02907          -0.0387645 -0.0967829   0.035296
 H              3.10719    3.01965    3.33853            0.052384  0.0367724 -0.0918892
 H              4.01975    3.58333    3.04943          -0.0489849   0.131351  -0.113594
 H             0.439437    4.69719    3.08552            0.198402  0.0765651   0.123527
 H              1.31104    4.06165    3.32982           0.0870649   0.249125  0.0105606
 H              2.19276    4.67007    3.07577          -0.0204424  0.0837669 -0.0830777
 H              3.08327    4.09127    3.33207           -0.143589   0.222512  0.0717039
 H              3.92785    4.69483     3.0689           -0.263647 -0.0762977  -0.206308
 H             0.431307  -0.306507    3.93315           -0.075014   0.173338 -0.0204256
 H              1.31939   0.272382    4.27265            0.131635   -0.24799   0.101351
 H              2.19729  -0.270558    3.92619          -0.0853624 -0.0573537  -0.303507
 H              3.10516   0.264618    4.24822           -0.151298   0.142034   0.194672
 H              3.99256  -0.288245    3.92983           0.0938157  -0.207365  0.0295263
 H             0.422637   0.819352    3.95309           0.0772188   0.160282  -0.292936
 H              1.32738    1.37709    4.28595           -0.219434  0.0401061   0.103616
 H              2.19913   0.853646    3.96007           -0.230098 -0.0905103  0.0630523
 H              3.08855    1.37257    4.30448            0.132664 -0.0249496   0.252806
 H              4.00475   0.803937    3.94748           -0.119468 -0.0373845  0.0701621
 H             0.415269     1.9307    3.98896           0.0304103 -0.0519766  0.0579238
 H              1.30713    2.47068    4.28938            -0.12448   0.118721   0.153351
 H              2.20393    1.94106    3.95489             0.15643   -0.14097  -0.094484
 H               3.0837    2.47326    4.28507              0.12998   0.0158561 -0.00352811
 H               3.9944    1.92289    3.98628           0.0548396  -0.135469  -0.107954
 H             0.398797    3.04671    3.99874             0.18639  0.0908736  -0.152193
 H              1.31597    3.57474    4.29766           -0.127057  -0.134061 -0.0461773
 H               2.2055    3.02671    3.96715            0.125207   0.263233  0.0552434
 H              3.07207    3.57367    4.30136            0.151408   0.136971  0.0309908
 H               4.0067    3.04217    4.01177            0.219731 -0.0918712   0.154872
 H             0.460769    4.18691    4.02981          -0.0245251   0.186151  -0.133553
 H              1.39723    4.93926    3.91837           0.0851664 -0.0679662  -0.147809
 H              2.19265    4.13613    3.97757           0.0626884  -0.225595   0.193691
 H              2.91461    4.97091    3.91721           -0.131709 -0.0456098  -0.150294
 H              3.96144    4.16073    4.01728           0.0369247   0.279015  -0.256739
