125

 H             0.788838  -0.634429    0.55962             0.11919 0.00805485   0.127967
 H              1.35798   0.309092   0.469891           0.0876449  0.0130266  0.0054958
 H              2.26173  -0.566075   0.634657            -0.18169 0.00517829   0.068617
 H              3.05655   0.289168   0.454858           0.0311793   0.145263   0.217681
 H              3.61733   -0.64374   0.563243           0.0306855  -0.124149 -0.0216408
 H             0.441202   0.809092   0.140579           0.0488263  -0.175526 -0.0971474
 H              1.31062     1.4103   0.481908           0.0532824 0.00308763   0.202983
 H               2.2094   0.880108   0.126601          -0.0469004 -0.0695554  -0.162105
 H              3.08931    1.41174   0.475093           -0.096046  0.0959011   0.218655
 H              3.94901   0.840724   0.120656            0.214814  0.0520705  0.0943683
 H             0.416557    1.94106   0.167887          -0.00443624    0.169106    0.171987
 H              1.29909    2.51489   0.486719          -0.0982507   0.119469  -0.058336
 H              2.20306    1.96488   0.160304           -0.107371   0.076541 -0.0144967
 H              3.07917    2.52878   0.474215          -0.0401921   0.017238  0.0843254
 H              3.97336    1.99253   0.130842           0.0959835  0.0371378 -0.0519968
 H             0.392514    3.05205   0.198412            0.031818  -0.027899   0.313999
 H              1.30452    3.61099   0.510204           0.0861653  0.0314947  -0.206798
 H              2.19721    3.06178   0.177244          -0.0697229 -0.0201935  0.0476316
 H              3.10708    3.62869   0.521828            0.117534 -0.0879429 -0.0447473
 H              3.97463    3.08222   0.133744            0.179388 0.00583239  -0.217242
 H             0.422086    4.18788   0.209552           -0.021296   0.142145  -0.214248
 H              1.33463    4.75191    0.53317           0.0236263  -0.066718   0.163949
 H              2.20357    4.17072   0.218252            0.271072  0.0903222  -0.135381
 H              3.08517     4.7444   0.550305          -0.0745089 -0.0190114  0.0829867
 H               4.0124    4.19001   0.213292            0.0205232    0.205153 -0.00654444
 H             0.453268   0.278104    1.11709           0.0839561  -0.172868 -0.0957442
 H              1.37662  -0.280515    1.39857           -0.125859 -0.0844763   0.253371
 H               2.2089   0.362578    1.14171            0.144773 -0.0773775  -0.035007
 H              3.08406  -0.244792    1.41744           -0.176517 0.00954907   0.139929
 H               3.9826   0.284369    1.06495            0.118239  0.0475752  0.0460552
 H             0.396152     1.4054    1.10654           -0.111988  0.0786622   0.233151
 H                1.305   0.875205    1.43021           0.0674631 -0.0138433  -0.191317
 H              2.19267    1.42078    1.11174          -0.0888979   0.228912  0.0394772
 H              3.11835   0.863048    1.41443            0.198102  -0.033588  -0.422109
 H              3.99207    1.39977    1.07803           0.0846628  -0.107322 -0.0329962
 H              0.40776    2.50689     1.1186           0.0655222  0.0512974   0.127474
 H              1.29057    1.94965    1.44038            0.103793  -0.178451  -0.194408
 H               2.1938    2.50529    1.11824           0.0321764  0.0717369  0.0037255
 H              3.09312    1.95988    1.41677          -0.0140671 -0.0732388   0.103542
 H              4.00218    2.51729    1.09266            0.058954  0.0358224  -0.230548
 H              0.37232      3.609    1.14938           -0.015547  0.0804332 -0.0958437
 H              1.29503    3.03394    1.44686          -0.00329816  -0.0508279    0.103045
 H              2.20819    3.58527    1.15085           -0.249442  0.0957463  -0.292309
 H              3.09854    3.02324    1.45064            0.155214 -0.0233906 -0.0302514
 H              3.98162    3.60997     1.1452           -0.114421 -0.0531879 -0.0177002
 H             0.440897     4.7236    1.16598          -0.0807577  -0.144137   0.227566
 H              1.31263    4.12981    1.45914           0.0398434   0.146944 -0.0806932
 H              2.18072    4.71659    1.21692            0.101877 -0.0242541 -0.0201329
 H              3.08304    4.13389    1.46573            -0.206385   0.0412681 -0.00139142
 H               3.9616    4.73528    1.20051          -0.0803868  -0.142487  -0.020614
 H             0.452738  -0.298391       2.06            0.125196 -0.0314132 -0.0037573
 H              1.32687   0.301039    2.33022           -0.053874   0.133572   -0.11855
 H              2.21471  -0.294074    2.08143           -0.199454 -0.0677762 -0.0602055
 H              3.08419   0.303707    2.34833           0.0683532 -0.0396356 -0.0166365
 H              3.99628  -0.247501    2.03215            0.133038 -0.0703189  0.0502519
 H             0.408242   0.858949    2.04766          -0.0505798   0.205784  -0.113661
 H              1.29891    1.39754    2.38276           0.0391572  -0.220453 0.00429761
 H              2.21246   0.866911    2.06678           0.0471126    0.07109   0.125996
 H              3.08912    1.40811    2.37999           0.0495092   0.252379  -0.122725
 H               3.9948   0.843532     2.0357            0.184454 -0.0199283 -0.0406076
 H             0.398939    1.95326     2.0791          -0.0410801   -0.12609 -0.0698549
 H              1.30006    2.49775    2.38453           -0.159547  -0.244908   -0.20969
 H              2.18115     1.9401    2.05698          -0.0821784   -0.17054  -0.249556
 H              3.08514    2.47302    2.37566          -0.0782301  0.0487608   -0.11202
 H              4.00602    1.94703    2.03917          -0.0842337 0.00505567 -0.0641112
 H             0.389135    3.04135    2.08067           -0.143085   0.123583  0.0194036
 H              1.29812    3.58249    2.37922          7.66646e-05 -0.00957938    0.264442
 H              2.20482    3.02749    2.09052          -0.0677984   0.188759  0.0419362
 H              3.11409    3.55321    2.40338          -0.0646424 -0.0367994  0.0350377
 H              4.00943    3.02142    2.07759            0.058233 -0.0509741  0.0056715
 H             0.401907    4.14625    2.09933           0.0593438 -0.0728332  0.0740775
 H              1.37267    4.70922    2.36163          -0.0964342 -0.0372753 -0.0716892
 H              2.21881    4.11407    2.11126           0.0329702 -0.0779801 -0.0516835
 H              3.07653    4.68812    2.37129           -0.136153 -0.0918297  0.0219127
 H              3.99363    4.14456    2.10864          -0.0258137   -0.26714 -0.0491113
 H              0.39543   0.302421    2.96795          -0.0787595  -0.266044  0.0529333
 H              1.29002  -0.286714    3.25373           0.0871799   0.253701  0.0338169
 H              2.19749   0.290834    2.99982           -0.132405  0.0828896  0.0569029
 H              3.08793  -0.311613    3.23677           -0.200486   -0.34243 -0.0699689
 H              3.97754   0.284864    2.98792            0.100686 -0.0791599   0.219463
 H             0.401625    1.38336    3.00864             0.0319445    -0.130193 -0.000690189
 H               1.2948   0.841941    3.30751           0.0197946  0.0550192  0.0596822
 H              2.19411    1.39507    3.01854          -0.0402083 -0.0684959  -0.146222
 H              3.08726   0.821017    3.31378          -0.0360282  0.0760164 -0.0946054
 H              3.96713    1.37526    3.01476            0.266472  -0.016943  -0.164808
 H             0.422582    2.49481    3.03223          -0.0702378   0.138204   0.326837
 H              1.29491    1.93796     3.3415           -0.265672  -0.245087  -0.211624
 H               2.2014     2.4703    3.01321            0.199231  -0.132611   -0.18658
 H              3.10518    1.91635    3.34839           0.0607862  -0.110724  -0.197192
 H              3.98612    2.47592    3.02798            0.026112 -0.0643022 -0.0516231
 H             0.393336    3.59313    3.04205          -0.00412544   0.0343381   0.0394869
 H              1.31824     3.0323     3.3336          -0.0181834  0.0994858    0.22517
 H              2.19908    3.56405    3.03277           0.0102548 -0.0765736  -0.017502
 H              3.09481    2.99107    3.33786           0.0626171   0.142798 0.00596938
 H              4.02444     3.5623     3.0593          0.00966693   0.213035  -0.270146
 H             0.504887    4.71385    3.02627          -0.0430036  -0.188143   0.127849
 H              1.32983    4.09898    3.30948           0.0405673  0.0275613 -0.0249814
 H              2.20826    4.66959    3.05675           0.0281368   0.126914   0.267661
 H              3.09318    4.06965    3.32987           -0.0301168 -0.00137038    0.202255
 H              3.93575     4.7024    3.03115            0.129531  -0.104786   0.202415
 H             0.379219  -0.295464    3.91256           -0.127827   -0.11386   0.181176
 H              1.29208   0.252837    4.24337           0.0351268 -0.0768156   0.014296
 H              2.17931  -0.309888    3.92388           -0.229905   0.321138 0.00749124
 H              3.07875   0.234761    4.23682            0.125199 -0.0756573   0.077347
 H              3.96048  -0.297254    3.92205           -0.286442 -0.0356874  0.0255552
 H             0.387333   0.806655    3.94718          -0.0613897 -0.0429096   -0.28221
 H              1.30134    1.35226    4.27579          0.00865873 -0.0266448  0.0219409
 H              2.18854   0.800851    3.95029            0.148801   0.258324   0.093483
 H              3.08664       1.34    4.32013           -0.335664  0.0198277  0.0915717
 H              3.96656   0.833413    3.95809          0.00714545   0.435308  0.0563174
 H             0.401883    1.92248    3.99008          -0.0210821 -0.0163401  0.0368795
 H              1.31421     2.4556    4.28267          -0.0751873  -0.141153 -0.0405858
 H              2.20441    1.90591    3.96987          -0.0940289   0.131956 -0.0925425
 H              3.06782    2.46605    4.31742           -0.193195  -0.197493   0.127594
 H              3.99053    1.93998    3.99484          -0.0592969   0.266748   -0.10135
 H             0.417749    3.05361    4.00168            0.0694112 -0.00887618   -0.159097
 H              1.32553    3.59614    4.34916          -0.0153672  -0.230158  -0.077787
 H              2.19888    3.02591    3.97244            0.146073  -0.138279   0.159903
 H              3.07487    3.56753    4.34849            0.213237   0.186455 -0.0543428
 H              3.99071    3.02868    3.99099           0.0156118   0.170037  0.0897244
 H             0.469351    4.16989    4.00045           0.0847104  0.0943465  -0.129099
 H              1.41388    4.90541    4.00152           0.0950654   0.141175  0.0604614
 H              2.19574    4.11241    3.99198           0.0916791 -0.0822608   0.229723
 H              2.90966    4.98767    3.84438           0.0304226  0.0983143  -0.248955
 H              3.95163    4.14401    4.00643             0.10182 -0.0886246   0.152604
