125

 H             0.802913  -0.640621   0.543856           -0.129824 -0.0222815  -0.177545
 H              1.35246    0.30945   0.439056           0.0708025  -0.016847  0.0414443
 H               2.1119  -0.575509   0.625985            -0.23956 -0.0133192  -0.125758
 H              3.05585   0.293329   0.462895           0.0779413 -0.0685939   0.207684
 H              3.64428  -0.631547   0.572502          -0.0922217 -0.0275439   0.101366
 H             0.454933    0.84554   0.130766          -0.0447528   0.297295 -0.0839196
 H              1.32859    1.42897   0.471505          -0.00152729    0.261941  -0.0999848
 H              2.22765   0.886356   0.138825             0.12444  0.0383291   0.084929
 H              3.08447    1.40473    0.49963           -0.162413   0.095862  0.0941087
 H              3.96911    0.83099   0.155554           0.0646961   -0.13942  -0.151432
 H             0.436357    1.96414    0.14367           -0.255247 0.00992853   0.197717
 H              1.28802    2.51583   0.491777          -0.0827373  0.0210982   -0.13447
 H               2.2041    1.97884   0.155208            0.091324   0.167472  0.0452764
 H              3.10656    2.51199   0.487849           -0.138035 -0.0629455  -0.127449
 H              4.00282    1.93776   0.170051          -0.0840869 0.00527141 -0.0514015
 H             0.398492    3.06917   0.166611          -0.0987474  0.0166195  -0.134666
 H               1.2906    3.61079   0.516268          -0.0237143 -0.0187664  -0.238073
 H              2.20309    3.07142   0.169589           -0.270088   -0.10872 -0.0822199
 H              3.09745    3.62933   0.503074           -0.111366   0.150719  0.0426881
 H              4.00835    3.07134   0.195584           0.0190959  -0.107483    0.10353
 H             0.387612    4.18525   0.200388            0.187134   0.132015   -0.24729
 H              1.31426    4.73016    0.53306           0.0847923  0.0211408  -0.148977
 H              2.20478    4.17023    0.21555            0.253188   0.122247  0.0126617
 H              3.08945    4.74605   0.560658           0.0342665  -0.299262   0.151735
 H              4.00003    4.19408   0.215265          -0.0194458   0.213572  0.0492795
 H             0.420336   0.271027    1.06931          -0.0265471   0.146011 -0.0835522
 H              1.31443  -0.256906    1.39615           -0.186915  -0.111915  0.0566065
 H              2.18725   0.352068    1.12571           0.0102675   0.200688   0.129944
 H              3.02197  -0.288338    1.40812           0.0561967  0.0536656   -0.09745
 H              3.94874   0.270869    1.10822           0.0842726 -0.0584723 -0.0983811
 H             0.402631    1.41409    1.08582           -0.105894   0.108732  0.0841352
 H              1.29689   0.873541    1.42328            0.146931  0.0832207  0.0440429
 H              2.19497    1.42532    1.13657          -0.0136866  -0.141459   0.283184
 H              3.08591   0.855068    1.43034          0.00357247  0.0815728  -0.210115
 H              4.00143    1.38275     1.1175           0.0875096   0.152553 -0.0534169
 H             0.373476    2.50807    1.10925            0.187689  -0.122044  -0.136218
 H              1.28017     1.9637    1.43336            0.154058   0.156122  0.0634955
 H              2.20019    2.49867    1.10619           0.0737663  -0.387472  -0.148979
 H              3.09528    1.95768    1.45047            0.110643   0.269041 -0.0708879
 H              4.00279    2.49786    1.12761          -0.0708431 0.00753417 -0.0430063
 H             0.406827    3.62964    1.14383           -0.092136  0.0127386   0.108135
 H              1.31403    3.03988    1.43931          -0.0650914  -0.116087  -0.245625
 H              2.20537    3.59925     1.1408          -0.0985385  -0.168193 -0.0608174
 H              3.08434    3.04535    1.43601           -0.232328  0.0648609  -0.107524
 H              4.00501      3.612    1.15003          -0.00809612    0.052701   0.0342708
 H             0.411751    4.74065    1.19011          0.00874558 -0.0847132 -0.0731473
 H              1.30708    4.13809    1.45567            0.185648 -0.0531341   0.124124
 H              2.20867    4.73021    1.21318             0.0319226    -0.229048 -0.000150664
 H              3.08471     4.1333    1.46006            0.116781   -0.14024  -0.110225
 H              3.96123    4.75603     1.1866          -0.0952788  -0.125213   0.134965
 H              0.42601  -0.261093      2.039           -0.098199  -0.127738 -0.0556835
 H              1.30243   0.315784       2.34          -0.0361436  -0.168017   0.147239
 H              2.16348  -0.300721    2.06338           0.0636341  0.0507151 -0.0771971
 H               3.0891    0.29753    2.34815            0.178917 -0.0289434 -0.0619784
 H              3.94145  -0.340349     2.0391            0.178169 -0.0195011 -0.0383038
 H             0.401482   0.846433    2.02207           0.0882457 0.00234591   0.160519
 H              1.29359    1.38786    2.37511          -0.0476665 -0.0355029  0.0343958
 H              2.19959   0.840217    2.07609           0.0633816 -0.0571359  -0.085683
 H              3.11069    1.37961    2.37147           0.0621946  0.0254629  0.0599418
 H               4.0253   0.818342    2.06637          -0.0188968 -0.0707473     0.0816
 H             0.389533    1.95497    2.05731            -0.05434 -0.0145666   0.144155
 H              1.29745    2.47648    2.40626           -0.175133 -0.0666199  0.0547581
 H              2.17803    1.92662    2.07651            0.133483   -0.20794   0.165615
 H              3.09753    2.46829     2.3884          -0.0118316   0.029645  -0.113869
 H              4.04032    1.92479    2.07633            0.114108   0.316458  -0.279994
 H             0.409895    3.04221     2.0621            0.218113  -0.175875 -0.0207244
 H              1.29269    3.55361    2.39923           -0.184703  -0.142404  -0.193613
 H              2.18437    3.01075    2.07409             0.12655 -0.0833743  0.0213856
 H              3.07412     3.5712    2.40984           -0.133032  0.0239366  0.0235713
 H              3.98684    3.04567    2.09646           0.0512645  -0.271026  0.0520177
 H             0.399928    4.16097    2.12796            0.131659   0.316759   0.321343
 H              1.31904     4.7021    2.38996           0.0298667  0.0633623  0.0772893
 H              2.19176     4.1103    2.11568            0.0226769 -0.00825512   0.0365197
 H               3.0583    4.69054    2.38238            0.145626 -0.0895737 -0.0950449
 H              3.95896    4.13754    2.11746            0.100535   -0.10261  -0.179374
 H             0.395013   0.312332    2.98457           0.0983077 -0.0300512 -0.0575111
 H              1.30912  -0.297829    3.24197           -0.100921  -0.160313 -0.0320019
 H              2.21162   0.296792    2.99192           -0.066374 -0.0101466  0.0895784
 H               3.0767  -0.330732    3.22521           0.0265637   0.201867 -0.0394993
 H               4.0022   0.271736    2.98237            0.204919  0.0954471 -0.0574071
 H             0.401777    1.37069    3.00442           -0.155049   0.192608 -0.0344029
 H              1.30325   0.820834    3.30564           -0.171361  -0.224521   0.192057
 H              2.20818    1.38381    3.00409          -0.0534426   0.158251  0.0440572
 H              3.12673   0.821377    3.31253            0.153186  -0.063817  -0.159718
 H               4.0286    1.37696    3.03217           -0.138729   0.334926  0.0923827
 H             0.393722    2.46895    3.03688           0.0667063  -0.224787 -0.0212666
 H              1.31933    1.91642    3.34933           0.0577821  0.0275488   0.199122
 H              2.20122    2.47133    3.02173            0.115047 -0.0479487  -0.056918
 H              3.09678    1.92251    3.31905            0.100136   0.123878 -0.0677034
 H              4.02019    2.48456    3.03954          -0.0495354  -0.299981   0.357551
 H             0.408047    3.57449    3.05063           -0.235245 -0.0525203   0.227384
 H              1.30753    2.99333    3.36471           0.0979569   0.112914  -0.018484
 H              2.19236    3.54279    3.02975          -0.0264211 -0.0937033   -0.19671
 H               3.1063    3.01916    3.35731           -0.044117  0.0288932     0.0586
 H              3.97849    3.61413    3.05418            0.181159  -0.226664 0.00541525
 H             0.484001    4.73455    3.06503            0.113151 -0.0647422 -0.0616429
 H              1.32156    4.08992     3.2968           -0.188354  0.0751681  0.0586902
 H              2.20344    4.70995    3.06114          -0.0967321   0.115717   0.158078
 H              3.05983    4.09962    3.32799           -0.194094 0.00588148   0.182656
 H              3.90995    4.74396    3.06559          -0.0379063  0.0635093   0.108897
 H             0.405657  -0.302813    3.89133          -0.0739809 0.00458175  0.0532292
 H              1.31292   0.217083    4.22378          -0.0811218 -0.0362644 -0.0549006
 H              2.20662  -0.325942    3.90407           -0.122224  -0.265759  -0.025703
 H              3.10728   0.218715    4.21722           0.0476588 0.00518312  -0.113318
 H                4.001  -0.305824    3.90446           0.0113395 -0.0907729  0.0199345
 H             0.404655   0.808058    3.96442          0.00882528  -0.273022   0.183256
 H              1.33312    1.34965    4.29394          -0.0754681 -0.0127279  0.0677857
 H              2.20253   0.805898    3.94317            0.116762   0.139509  0.0274532
 H              3.11376    1.35284    4.27909          0.00591295  0.0380824 -0.0576329
 H              4.00624   0.804736    3.98896            0.0350549   -0.042094 -0.00778265
 H             0.436653    1.91144    3.97547            0.087135 -0.0057254 -0.0698166
 H              1.33599    2.45113    4.33606           0.0973295 -0.0685479    0.01609
 H              2.22636    1.92402    3.95468           -0.127523 -0.0436531   0.052922
 H              3.09886    2.46805    4.33272          -0.0163522  0.0184014   0.100333
 H              3.98671    1.93878    3.98133            0.262413 -0.0300453  0.0798401
 H             0.428963    3.01518    4.02656           -0.103459   0.208272  -0.123483
 H              1.33654    3.56708     4.2801           -0.114812   0.112459 -0.0278023
 H              2.20774    3.02488      3.966             0.24127   0.265567   0.156218
 H              3.08437    3.58903    4.29332            0.162096  0.0723352  -0.081078
 H              3.98245    3.05164    4.00795          -0.0820452  0.0688574  0.0978017
 H             0.492992    4.14805    4.00546            0.120292 -0.0270035  -0.053282
 H              1.39475    5.02831    3.80751          -0.0115751   0.138849  -0.281635
 H              2.18564    4.17877    4.01133           -0.070364   0.121474   -0.12933
 H               3.0039    5.00813    3.85689           -0.254846  0.0665812   0.115933
 H              3.92685    4.21388    4.00028            -0.18399   0.119416  0.0522383
