125

 H             0.843539   -0.65458    0.53128          -0.0376449  -0.128239   0.141288
 H              1.35142    0.31986    0.45073           0.0163622  0.0785994   0.163539
 H              2.08512  -0.559986   0.527945           0.0134196  -0.163764  -0.082434
 H              3.03408   0.283907   0.470789           -0.238097  0.0378444  -0.236356
 H              3.67106  -0.625336   0.578929           -0.0248195 -0.00979886    0.138031
 H             0.406606   0.846945   0.145591            0.134297  -0.204912   0.201667
 H               1.2945    1.43385   0.475177           -0.182381 -0.0134885  0.0745068
 H              2.20627   0.869919   0.101109            0.230226 -0.0731637  -0.190499
 H              3.09672    1.40349   0.470425           0.0947166   0.100127  -0.124121
 H              3.99706   0.814636   0.196357           -0.159526   0.138284 -0.0566776
 H             0.388668    1.96288   0.171652           -0.161784 -0.0832268 -0.0571858
 H              1.31144    2.51265   0.502351           -0.114214  0.0543083  0.0306739
 H              2.19653    1.97024   0.161136          -0.0553161  -0.126642  0.0840806
 H              3.09049    2.50473   0.481054          -0.0519372  0.0954974   0.105618
 H              4.00435    1.96832   0.168081            0.205609  0.0372575  0.0448483
 H             0.423682    3.07069   0.181635           0.0849602  0.0452683   0.137376
 H              1.31646    3.60628   0.502118           -0.145309     0.1079   -0.27971
 H              2.20273    3.08466    0.15312           0.0707934  -0.128776 -0.0617616
 H              3.08296    3.63224   0.485754            0.202444 -0.0652703  0.0512982
 H               3.9681    3.07903   0.179533            -0.161317   0.0535767 -0.00941739
 H             0.407129    4.18833   0.212467             0.16841  0.0228104 -0.0506423
 H              1.30981     4.7447   0.525225           0.0248725  -0.091544  0.0167802
 H              2.18288    4.18748   0.186947           0.0522066 -0.0629226  0.0194878
 H              3.08962    4.74862    0.52999           -0.090462  -0.133315  0.0201949
 H              4.01562    4.17556   0.209363            0.123433   -0.16799  0.0324883
 H             0.419249   0.262107    1.07874          -0.0343523  0.0540785   0.047098
 H              1.35398  -0.254544    1.39647           0.0690673  -0.142544  0.0123819
 H              2.19759   0.356425    1.12495           -0.017693   0.212426  -0.109192
 H              3.02151  -0.275303    1.40866          -0.0588728  -0.244253 -0.0630074
 H              3.98013   0.256919     1.1374            0.172533  0.0411555 -0.0817644
 H             0.373351    1.39443    1.10669           0.00771958  -0.0377111 -0.00785561
 H              1.29677   0.864252    1.40373           0.0286727 -0.0114817 -0.0526487
 H              2.20242    1.41291        1.1           -0.0827356    0.149939 -0.00898778
 H              3.11664   0.856683    1.41102           -0.0924868  -0.0106564 -0.00558053
 H              4.00409    1.38873    1.10458          0.00385861 -0.0612188  0.0599785
 H             0.386563    2.50464     1.1441            0.224367  -0.138253   0.088829
 H              1.28316    1.94847    1.43069           -0.130525   0.382689  0.0350202
 H              2.20521    2.51223    1.11461            0.166683   0.223077  0.0393105
 H              3.09889    1.95827    1.43823          -0.0709779 -0.0340011  0.0486997
 H              4.02418    2.49509    1.13097            0.145252  -0.100527 -0.0705342
 H             0.414681     3.6115    1.14236            0.156825   0.161916  0.0217527
 H              1.31118    3.04315    1.44764           -0.212312    0.07513   -0.19388
 H              2.19499    3.60097    1.13917           -0.166504 -0.0162367 -0.0875418
 H              3.10035     3.0396    1.43476           0.0144906    0.14814  0.0422466
 H              3.98883    3.60404     1.1563           -0.259551  -0.160074 -0.0455583
 H             0.465455    4.75296    1.22306          -0.0443823   0.180584    0.15617
 H              1.32361    4.14995    1.46053           0.0373797 -0.0372221  0.0959205
 H              2.18857    4.71009    1.19175          -0.0498496   0.170834 -0.0186645
 H               3.0863    4.12806     1.4524           0.0854789 -0.0508116 -0.0660989
 H              3.96021    4.73769      1.192          -0.0308231  -0.124554  -0.252322
 H              0.43526   -0.31983    2.03604           0.0861812 -0.0133151   0.112037
 H               1.3173   0.306534    2.34796          -0.0416786   0.103345  -0.113123
 H              2.19387  -0.275227    2.09691          -0.0538053   0.119718   0.087303
 H               3.0818   0.326477    2.35788            0.167417  -0.182473 -0.0484559
 H              3.93842  -0.313693    2.05751          -0.00906923   0.0951056   0.0293546
 H             0.399155    0.83378    2.06162           -0.254469 -0.0767028  -0.127851
 H              1.31463    1.38963    2.38487           0.0495799 -0.0691031 -0.0827376
 H              2.19931   0.876595    2.05365            0.145585  0.0391878 -0.0700893
 H              3.10447    1.41097    2.37723           -0.295099  -0.192691   0.235371
 H              3.99566   0.851452    2.06254           0.0348202 -0.0532756  -0.231202
 H             0.369667    1.92543     2.0715          0.00148172   0.110287  -0.114426
 H              1.29813    2.47519    2.38346          -0.0149237   0.132285   0.118939
 H              2.20252    1.93886    2.04781            0.118262  -0.138053  0.0161681
 H               3.1091    2.48882    2.37638           0.0634133  0.0136067 -0.0507583
 H              4.01973    1.94701    2.06038           -0.176949  -0.102309   0.220409
 H              0.37689    3.03483    2.09687           -0.293387  -0.189767  0.0229753
 H              1.30607    3.58005    2.37457           -0.213489   0.101819   -0.26428
 H              2.20543    3.02703    2.08321           0.0473911  -0.203763   0.247922
 H              3.11524    3.57268    2.38359           0.0236231 -0.0244707 -0.0749252
 H              4.00884    3.05289    2.08789           -0.151085   0.101972  0.0931616
 H             0.421047    4.13604    2.12107           0.0382327  0.0202282  0.0917322
 H              1.32991    4.72078    2.38489            0.138219 -0.0809696  -0.227575
 H               2.2046    4.11561    2.10292           0.0675536  0.0316899  0.0127271
 H              3.07301    4.71793    2.35946           0.0369928  0.0461162  0.0827813
 H              3.99362    4.15858    2.12737           0.0629544  0.0760451  0.0660381
 H              0.40898   0.265623    2.99289          -0.00677188    0.154771   -0.137897
 H              1.31698  -0.316824    3.25455            0.130472   0.146233  0.0536185
 H               2.1982   0.297624    3.00839            0.161893  0.0386881  -0.031649
 H              3.09061  -0.292468    3.25219          -0.0794376   0.192679   0.322818
 H              3.99145   0.291064    3.00315          -0.0598222 -0.0721553  -0.119576
 H             0.421814    1.37635    3.01417          0.00930061  0.0880856  -0.103489
 H              1.31188   0.817936    3.32283            0.247576   -0.12126 -0.0279916
 H              2.18945    1.39314    3.01588           -0.228623 -0.0280177  -0.029021
 H              3.09774   0.834172    3.30886            0.253548  0.0305386  0.0654048
 H              4.01839    1.38662    3.01536            0.105203   0.339648 -0.0330122
 H             0.409611    2.47431    3.03585           -0.265832 -0.0717697   0.076606
 H              1.28855    1.91573    3.33423           0.0417909    -0.2404 -0.0771235
 H              2.19299    2.46763     3.0121          0.00812611 -0.0488458  0.0288183
 H               3.0983    1.92349     3.3255          -0.0628487   0.156943 0.00708115
 H              3.99175    2.48302    3.02738          -0.0122899 -0.0279187 0.00593988
 H             0.432473    3.57129    3.06504           0.0163318   0.156775 -0.0315299
 H              1.31308    3.01914    3.33806            0.034746  -0.100324   -0.21506
 H              2.18612    3.54727    3.03552          -0.0447702  0.0519085  0.0199598
 H              3.09921    3.00874    3.34753             0.07847 -0.0774992  0.0141849
 H              4.01033    3.58963     3.0598             0.17412  -0.111765   -0.15155
 H                0.464    4.71245    3.04459           -0.051709   0.187537   0.137858
 H              1.32815    4.09621    3.32761          -0.0863253  0.0781354  0.0715349
 H              2.20338    4.68431    3.07027             0.10771  0.0900521 -0.0862182
 H              3.05876    4.07901    3.31685           0.0436748 -0.0298691 -0.0726532
 H              3.89237    4.71134    3.08673          0.000324556  -0.0789414   0.0963381
 H             0.376765  -0.329177    3.89394            0.177668  0.0350799  -0.251323
 H              1.31095   0.234908    4.21273           -0.115281   0.052808  -0.150956
 H               2.2168  -0.316831    3.91765            0.025585 -0.0180161 -0.0111387
 H               3.1053    0.24341    4.23412           -0.180733     0.1287  -0.174234
 H              3.97704  -0.334225    3.89753            0.251836  0.0796233  0.0281546
 H             0.404691   0.811017    3.95969            0.119444   -0.22784  0.0193483
 H              1.31174      1.349    4.30137            0.145593  -0.136667 -0.0991845
 H              2.22128   0.824675    3.95994          -0.0395227   0.171193  0.0220023
 H              3.08981    1.35701    4.26247           0.0991455   0.255317   0.233935
 H              3.99824   0.805424    3.97394            -0.15857 -0.0229085   0.135848
 H             0.421231    1.92842    3.99538            0.159317   0.374243   0.271093
 H              1.32533    2.46495    4.33494          -0.0448248   0.054711  -0.169637
 H              2.18815     1.9157    3.96939           -0.159499  -0.263506   0.203692
 H              3.07399    2.45623    4.30097           0.0316826   -0.30195   0.105696
 H              3.98459    1.93162    3.97948            0.114188    0.24846 -0.0650041
 H             0.443572    3.04073     4.0065           0.0548867 -0.0215525 -0.0973964
 H              1.34164    3.57342    4.29907            -0.10879   0.106995   0.194126
 H              2.20771    3.02223    3.96653          -0.0354879 -0.0631534  0.0319418
 H              3.05691    3.56755     4.3165           -0.297508  -0.187427  0.0271165
 H              3.99143    3.02729    3.99479           0.0731388  0.0667428  0.0526355
 H             0.494422    4.17744    4.00185           0.0893543  -0.063859 -0.0972069
 H               1.3797    5.04074    3.81714          0.00902819  0.0129158   0.122043
 H              2.19941    4.16398    4.00451            0.198458  -0.254808   0.131072
 H              2.97656    4.95602    3.89519          -0.0964602  -0.105575 -0.0265839
 H              3.89973     4.1448    4.02193           -0.265458  -0.236114  0.0522271
