125

 H             0.848295  -0.655419   0.560024           -0.116425  -0.134291  -0.131712
 H              1.35206   0.309584   0.446554           0.0865437  -0.171174   0.108954
 H              2.04753  -0.568348   0.597966           0.0259718 -0.0216031 -0.0986729
 H              3.07565   0.289545   0.453067           -0.115062 -0.0457707 -0.0392252
 H              3.65965  -0.653058   0.584385           -0.125194  0.0277316   0.128076
 H             0.427873   0.860708   0.162867            0.107097   0.105323   0.137838
 H               1.3105    1.41174   0.476788           0.0455951  -0.158509   0.128897
 H              2.20703   0.862831    0.14612          -0.0371159  -0.140027 -0.0632006
 H              3.08993    1.40934   0.484743           -0.183911 -0.0697843   0.189499
 H              3.97189   0.828593   0.148208          -0.0622517  -0.132853  -0.157156
 H             0.388936    1.97452   0.162544          -0.0550965  0.0631243  0.0340073
 H              1.30584    2.50823   0.487262             -0.196606 -0.000196259     0.078958
 H               2.1868    1.96752   0.140869           -0.343529 -0.0436003   0.039615
 H              3.08724    2.49558   0.482555           0.0131509 0.00063944   0.155127
 H              4.01895    1.94343   0.176323          -0.0795264 -0.0523848  -0.172747
 H              0.42053    3.05549   0.127692          0.00330198   0.138586   0.129585
 H               1.2943    3.62034   0.492844           0.0705376  0.0373187   0.202433
 H              2.20471    3.05875   0.155666           0.0225371 -0.0909788 -0.0353614
 H              3.10111    3.60302    0.51506          -0.0237871  0.0485334 -0.0215978
 H              3.98521    3.05011   0.165012           -0.340111  -0.097024 -0.0916068
 H             0.370964     4.1728   0.199857            0.116765 -0.0546903   -0.16715
 H              1.28857    4.73352   0.520379           -0.115919  0.0389066 -0.0095003
 H              2.17828    4.17356   0.195847           -0.0589969 -0.00991855     0.30605
 H              3.07673    4.73817    0.53395             0.052415   -0.229706 0.000594425
 H              3.99108    4.18319   0.218184           0.0878022 -0.0385789  -0.115288
 H              0.43022   0.281328    1.10438            0.267493  0.0752036  -0.175072
 H              1.33801  -0.247666    1.42048          -0.0741554   -0.10813   0.110626
 H              2.21446   0.357756     1.1252            0.034107  -0.211455  0.0244721
 H              3.05769  -0.240886    1.40141          0.00165467  -0.219346   0.023257
 H              3.99133    0.28291    1.11308            0.249588   -0.19093  -0.209342
 H             0.405036    1.40645    1.09467            0.176039 -0.0468138   0.156348
 H              1.31043   0.864386    1.41692           0.0809261  0.0237757 -0.0876338
 H              2.20012    1.42485    1.10271           0.0683622  0.0327709  -0.180849
 H              3.10453   0.862667    1.42087          0.00408544  -0.125802  -0.168043
 H              4.01761    1.39746    1.11606           0.0701374   0.237183  -0.143067
 H             0.408663    2.48003    1.11502          -0.0994945 -0.0695382     0.1396
 H              1.31574    1.95628    1.44218           0.0960388   0.135729 -0.0642775
 H              2.18145    2.50475    1.09983             0.160635 0.000743976  -0.0403706
 H              3.09918    1.95636     1.4498           -0.116334 -0.0943087   0.187202
 H               3.9893    2.49471    1.12317           0.0866942  0.0447557 -0.0805235
 H             0.380412    3.60226    1.15335            0.305292 -0.0829711 -0.0255891
 H              1.30608    3.05082    1.43405           -0.218854 -0.0399973  -0.061827
 H              2.19329    3.60322    1.13016          -0.00262874   0.0560564  0.00730814
 H              3.09419    3.03264    1.44546           0.0523692 -0.0342501 -0.0663733
 H              3.98438    3.60535    1.16433            0.068551  0.0511718 -0.0133187
 H             0.404421    4.71921    1.18435            0.155781  0.0751324  0.0420262
 H              1.30644    4.14018    1.45292           0.0466876   -0.11984    0.04197
 H              2.18992    4.72505     1.2018            0.126069   0.248293 -0.0125449
 H              3.08186    4.12775    1.47053          -0.00958708  -0.0861322  0.00106736
 H              3.95126    4.74481    1.21955           0.0916661   0.174998  0.0308149
 H             0.437474  -0.299858    2.04778            0.136757  0.0551963  -0.212252
 H              1.32921   0.294709    2.33619           -0.036985   0.202759 -0.0577811
 H              2.22549  -0.274138    2.06618          -0.0219513  -0.113491  -0.192712
 H              3.08974   0.311899    2.34929            0.115991 -0.0388002  0.0135765
 H              3.95198  -0.278474    2.04658           0.0805877  -0.118463  -0.155139
 H             0.391597   0.849249    2.04113          -0.0577055   0.115493   0.040268
 H              1.30567    1.38617    2.37656           0.0722479 -0.0921346 -0.0201327
 H              2.20875   0.863423    2.05253            0.178395  -0.202998  -0.260904
 H               3.0949    1.39305    2.38165           -0.098294 -0.0573703 -0.0699456
 H              3.99788   0.855117    2.04918           0.0113553   0.295802   0.096491
 H             0.398097    1.95259    2.06359           0.0155623   0.181942  0.0153176
 H               1.3024    2.47307    2.37454          -0.0397197 -0.0491317   0.254856
 H              2.20731    1.94041     2.0625           0.0667636   0.413135  0.0717915
 H               3.0982    2.49106    2.38327           0.0127724   0.179769 -0.0990126
 H              4.02339     1.9475    2.08728          -0.0739706   0.115044  -0.250492
 H             0.405997    3.05128     2.0817           -0.178525 -0.0442548   0.114574
 H              1.29547    3.55985    2.41171          0.00454799 -0.0648459  -0.193161
 H              2.19943    3.02446    2.06581           -0.014373  -0.134982   0.135103
 H              3.09184    3.56516    2.39564          -0.0399584 -0.0670832   0.156793
 H              3.99136    3.03612    2.10522           0.0243707  -0.216046  0.0826838
 H              0.41736    4.16083    2.12564          -0.0133029   0.116302  0.0253547
 H              1.33694    4.71699     2.3722           -0.263671   0.429277  -0.124017
 H              2.19202    4.10782    2.11028           0.0246393  0.0669844  0.0699828
 H              3.05785     4.7294    2.38906            0.138017  -0.026683  -0.137964
 H              3.98438    4.15333    2.15161           0.0322999  0.0320346 0.00658323
 H             0.392872   0.283568    2.97539          -0.0925612 -0.0606442  -0.134079
 H              1.30536  -0.286593    3.24441           -0.0766789  0.00394571 0.000144196
 H              2.21171   0.290527    2.97856           0.0880195 0.00841988  0.0382562
 H              3.08172  -0.323437    3.22513          -0.0405569  0.0989381  -0.179777
 H              3.99335    0.25948    2.99307          -0.0795389   0.316537     0.2023
 H             0.394452    1.38484    3.00679            0.203617  -0.152065   0.164948
 H              1.30538   0.810777     3.3086           0.0361279  0.0915311   0.082993
 H              2.19969    1.36552    3.00329          -0.0908238   0.194046 -0.0478562
 H              3.10721   0.815091     3.3128            0.085122  0.0486986   0.263328
 H              4.00641      1.348    3.02616          -0.0977545  0.0896041   0.159787
 H             0.391246    2.50839    3.02005             0.17989  -0.213615  -0.278621
 H              1.30761    1.90931    3.31511           -0.268798  -0.134277 -0.0588953
 H              2.20959    2.45026    2.99487           -0.055668  -0.225358   0.141799
 H              3.10918    1.91206     3.3323           -0.172022   0.064523  0.0463427
 H              4.01553    2.47402    3.03279           -0.197862  0.0341557  -0.052537
 H             0.411953    3.61341    3.04841           0.0110255  0.0756638 -0.0931465
 H              1.31394    3.00296    3.33892          -0.0981107  -0.284303  0.0636065
 H              2.20825    3.55806    3.03778           -0.114507   0.160684  -0.200488
 H              3.08365    2.99292    3.35959          -0.0681467   -0.13726  -0.186369
 H              3.98582     3.5661    3.06419           -0.129174   0.230298  0.0385048
 H             0.506572    4.75524    3.11006            0.154077   0.210189 -0.0119995
 H              1.32954    4.06431    3.34922          -0.0315215   0.112557 -0.0433001
 H              2.19753    4.68801    3.06984            0.177593  -0.279006 -0.0220357
 H              3.07806    4.08961    3.31269           0.0344092 -0.0850585   0.181426
 H              3.88055    4.77293    3.07425          -0.0372654  -0.038248   0.174801
 H             0.419085  -0.307541     3.9202            0.132024  0.0801912  -0.272279
 H              1.31334   0.239976    4.23412            0.116949  0.0628528  0.0643728
 H              2.20819  -0.297997    3.90626           -0.174847   0.094401  0.0344519
 H              3.08245   0.236313    4.24049           0.0539225  -0.209631   0.136926
 H              3.95702  -0.328582    3.89315           0.0460785  -0.119077   0.147815
 H              0.40004   0.812507    3.94374           -0.208988  0.0663565  -0.201353
 H              1.31081    1.37356    4.25131           -0.049636  -0.155253  0.0794271
 H               2.2144   0.818063    3.94485            0.127912  -0.328318  -0.185105
 H               3.0978      1.355    4.28108            0.019747   0.135963   0.231234
 H              3.99236   0.786462    3.98623            0.158867   0.183334  0.0660182
 H             0.419301    1.95413    3.96813          -0.00841827   -0.268853     0.23744
 H              1.33247    2.47762    4.30566           -0.221868  0.0429766  0.0620771
 H              2.21167    1.92351    3.93953          -0.0738792   0.112575  0.0509628
 H              3.09459    2.46258    4.29757            0.157857 -0.0407468   0.244132
 H              4.00154    1.89782    3.99243          -0.0409889 -0.0962774 -0.0707463
 H             0.424704    3.05245    3.99518            0.198211  0.0148567  -0.067619
 H              1.33428    3.57966    4.34255           -0.153154  0.0295061 -0.0793909
 H              2.19657    3.02557    3.97537            0.297052   0.111663 -0.0724117
 H               3.0696      3.576    4.29616          0.00422746   0.188295 -0.0910872
 H              3.98114    3.04034    4.01542          -0.0799964  -0.212333   0.134413
 H             0.486029    4.18117    4.01112            -0.12293   0.019218   0.199037
 H              1.41317    4.98791    3.87837            -0.0400698 -3.08466e-05     0.049898
 H              2.20591    4.16066    4.02952          -0.0243445   0.375482  -0.129785
 H              3.00084    5.00216    3.85481            0.106128  0.0649943  0.0427016
 H               3.9251    4.16784    3.99833          -0.0139099  0.0450713  -0.142402
