125

 H           -0.0397885 -0.0397885 -0.0397885          -0.0711717 -0.0711717 -0.0711717
 H              1.06839   0.027471   0.027471          -0.0403023 -0.0826092 -0.0826092
 H                  2.2  0.0139272  0.0139272          -1.16848e-14    -0.079197    -0.079197
 H              3.33161   0.027471   0.027471           0.0403023 -0.0826092 -0.0826092
 H              4.43979 -0.0397885 -0.0397885           0.0711717 -0.0711717 -0.0711717
 H             0.027471    1.06839   0.027471          -0.0826092 -0.0403023 -0.0826092
 H              1.11674    1.11674  0.0489019           -0.137352  -0.137352   -0.31627
 H                  2.2    1.11058  0.0340686          -5.17752e-15    -0.129453    -0.271706
 H              3.28326    1.11674  0.0489019            0.137352  -0.137352   -0.31627
 H              4.37253    1.06839   0.027471           0.0826092 -0.0403023 -0.0826092
 H            0.0139272        2.2  0.0139272             -0.079197 -1.22142e-14    -0.079197
 H              1.11058        2.2  0.0340686            -0.129453 -3.8983e-15   -0.271706
 H                  2.2        2.2  0.0245349          -2.11543e-14 -2.00058e-14    -0.216871
 H              3.28942        2.2  0.0340686             0.129453 1.48806e-14   -0.271706
 H              4.38607        2.2  0.0139272              0.079197 -8.50721e-15    -0.079197
 H             0.027471    3.33161   0.027471          -0.0826092  0.0403023 -0.0826092
 H              1.11674    3.28326  0.0489019           -0.137352   0.137352   -0.31627
 H                  2.2    3.28942  0.0340686          1.3914e-14   0.129453  -0.271706
 H              3.28326    3.28326  0.0489019            0.137352   0.137352   -0.31627
 H              4.37253    3.33161   0.027471           0.0826092  0.0403023 -0.0826092
 H           -0.0397885    4.43979 -0.0397885          -0.0711717  0.0711717 -0.0711717
 H              1.06839    4.37253   0.027471          -0.0403023  0.0826092 -0.0826092
 H                  2.2    4.38607  0.0139272          -8.44889e-15     0.079197    -0.079197
 H              3.33161    4.37253   0.027471           0.0403023  0.0826092 -0.0826092
 H              4.43979    4.43979 -0.0397885           0.0711717  0.0711717 -0.0711717
 H             0.027471   0.027471    1.06839          -0.0826092 -0.0826092 -0.0403023
 H              1.11674  0.0489019    1.11674           -0.137352   -0.31627  -0.137352
 H                  2.2  0.0340686    1.11058          1.01327e-14   -0.271706   -0.129453
 H              3.28326  0.0489019    1.11674            0.137352   -0.31627  -0.137352
 H              4.37253   0.027471    1.06839           0.0826092 -0.0826092 -0.0403023
 H            0.0489019    1.11674    1.11674            -0.31627  -0.137352  -0.137352
 H              1.12078    1.12078    1.12078           -0.111494  -0.111494  -0.111494
 H                  2.2    1.10933    1.10933          -2.15323e-14    -0.139341    -0.139341
 H              3.27922    1.12078    1.12078            0.111494  -0.111494  -0.111494
 H               4.3511    1.11674    1.11674             0.31627  -0.137352  -0.137352
 H            0.0340686        2.2    1.11058            -0.271706 1.03614e-15   -0.129453
 H              1.10933        2.2    1.10933             -0.139341 -2.35683e-14    -0.139341
 H                  2.2        2.2    1.10178          5.34695e-14 6.06533e-14   -0.156946
 H              3.29067        2.2    1.10933              0.139341 -2.81935e-14    -0.139341
 H              4.36593        2.2    1.11058             0.271706 8.54885e-16   -0.129453
 H            0.0489019    3.28326    1.11674            -0.31627   0.137352  -0.137352
 H              1.12078    3.27922    1.12078           -0.111494   0.111494  -0.111494
 H                  2.2    3.29067    1.10933          -1.87241e-14     0.139341    -0.139341
 H              3.27922    3.27922    1.12078            0.111494   0.111494  -0.111494
 H               4.3511    3.28326    1.11674             0.31627   0.137352  -0.137352
 H             0.027471    4.37253    1.06839          -0.0826092  0.0826092 -0.0403023
 H              1.11674     4.3511    1.11674           -0.137352    0.31627  -0.137352
 H                  2.2    4.36593    1.11058          -2.75564e-15     0.271706    -0.129453
 H              3.28326     4.3511    1.11674            0.137352    0.31627  -0.137352
 H              4.37253    4.37253    1.06839           0.0826092  0.0826092 -0.0403023
 H            0.0139272  0.0139272        2.2             -0.079197    -0.079197 -1.61788e-14
 H              1.11058  0.0340686        2.2             -0.129453    -0.271706 -5.01301e-15
 H                  2.2  0.0245349        2.2          -2.27429e-14    -0.216871 -2.18066e-14
 H              3.28942  0.0340686        2.2             0.129453   -0.271706 1.14041e-14
 H              4.38607  0.0139272        2.2              0.079197    -0.079197 -3.18619e-15
 H            0.0340686    1.11058        2.2             -0.271706    -0.129453 -1.60932e-15
 H              1.10933    1.10933        2.2            -0.139341   -0.139341 1.34535e-14
 H                  2.2    1.10178        2.2          3.30256e-14   -0.156946 3.28916e-14
 H              3.29067    1.10933        2.2              0.139341    -0.139341 -1.14642e-14
 H              4.36593    1.11058        2.2             0.271706   -0.129453 8.78947e-15
 H            0.0245349        2.2        2.2             -0.216871 -1.86846e-14 -1.72117e-14
 H              1.10178        2.2        2.2            -0.156946 6.37121e-14 3.32787e-14
 H                  2.2        2.2        2.2          -3.35923e-14 -3.99113e-14 -3.70033e-14
 H              3.29822        2.2        2.2             0.156946 4.90178e-14 4.15678e-14
 H              4.37547        2.2        2.2              0.216871  -2.6994e-14 -3.10948e-14
 H            0.0340686    3.28942        2.2            -0.271706    0.129453 1.08609e-14
 H              1.10933    3.29067        2.2             -0.139341     0.139341 -6.73761e-15
 H                  2.2    3.29822        2.2          3.13284e-14    0.156946 4.69518e-14
 H              3.29067    3.29067        2.2              0.139341     0.139341 -1.49264e-14
 H              4.36593    3.28942        2.2             0.271706    0.129453 1.26327e-14
 H            0.0139272    4.38607        2.2             -0.079197     0.079197 -6.92437e-15
 H              1.11058    4.36593        2.2            -0.129453    0.271706 9.47439e-15
 H                  2.2    4.37547        2.2          -2.62269e-14     0.216871 -2.28673e-14
 H              3.28942    4.36593        2.2             0.129453    0.271706 1.41788e-14
 H              4.38607    4.38607        2.2              0.079197     0.079197 -1.17702e-14
 H             0.027471   0.027471    3.33161          -0.0826092 -0.0826092  0.0403023
 H              1.11674  0.0489019    3.28326           -0.137352   -0.31627   0.137352
 H                  2.2  0.0340686    3.28942          -2.53464e-16    -0.271706     0.129453
 H              3.28326  0.0489019    3.28326            0.137352   -0.31627   0.137352
 H              4.37253   0.027471    3.33161           0.0826092 -0.0826092  0.0403023
 H            0.0489019    1.11674    3.28326            -0.31627  -0.137352   0.137352
 H              1.12078    1.12078    3.27922           -0.111494  -0.111494   0.111494
 H                  2.2    1.10933    3.29067          -2.16179e-14    -0.139341     0.139341
 H              3.27922    1.12078    3.27922            0.111494  -0.111494   0.111494
 H               4.3511    1.11674    3.28326             0.31627  -0.137352   0.137352
 H            0.0340686        2.2    3.28942            -0.271706 1.16242e-14    0.129453
 H              1.10933        2.2    3.29067            -0.139341 -3.4599e-14    0.139341
 H                  2.2        2.2    3.29822          3.67645e-14 3.92296e-14    0.156946
 H              3.29067        2.2    3.29067              0.139341 -3.38051e-14     0.139341
 H              4.36593        2.2    3.28942             0.271706 1.35048e-14    0.129453
 H            0.0489019    3.28326    3.28326            -0.31627   0.137352   0.137352
 H              1.12078    3.27922    3.27922           -0.111494   0.111494   0.111494
 H                  2.2    3.29067    3.29067          -3.18133e-14     0.139341     0.139341
 H              3.27922    3.27922    3.27922            0.111494   0.111494   0.111494
 H               4.3511    3.28326    3.28326             0.31627   0.137352   0.137352
 H             0.027471    4.37253    3.33161          -0.0826092  0.0826092  0.0403023
 H              1.11674     4.3511    3.28326           -0.137352    0.31627   0.137352
 H                  2.2    4.36593    3.28942          1.90212e-14    0.271706    0.129453
 H              3.28326     4.3511    3.28326            0.137352    0.31627   0.137352
 H              4.37253    4.37253    3.33161           0.0826092  0.0826092  0.0403023
 H           -0.0397885 -0.0397885    4.43979          -0.0711717 -0.0711717  0.0711717
 H              1.06839   0.027471    4.37253          -0.0403023 -0.0826092  0.0826092
 H                  2.2  0.0139272    4.38607          -8.88939e-15    -0.079197     0.079197
 H              3.33161   0.027471    4.37253           0.0403023 -0.0826092  0.0826092
 H              4.43979 -0.0397885    4.43979           0.0711717 -0.0711717  0.0711717
 H             0.027471    1.06839    4.37253          -0.0826092 -0.0403023  0.0826092
 H              1.11674    1.11674     4.3511           -0.137352  -0.137352    0.31627
 H                  2.2    1.11058    4.36593          -3.11565e-15    -0.129453     0.271706
 H              3.28326    1.11674     4.3511            0.137352  -0.137352    0.31627
 H              4.37253    1.06839    4.37253           0.0826092 -0.0403023  0.0826092
 H            0.0139272        2.2    4.38607             -0.079197 -1.62229e-14     0.079197
 H              1.11058        2.2    4.36593             -0.129453 -4.10142e-15     0.271706
 H                  2.2        2.2    4.37547          -1.93388e-14 -2.24688e-14     0.216871
 H              3.28942        2.2    4.36593             0.129453 7.12291e-15    0.271706
 H              4.38607        2.2    4.38607              0.079197 -1.89559e-14     0.079197
 H             0.027471    3.33161    4.37253          -0.0826092  0.0403023  0.0826092
 H              1.11674    3.28326     4.3511           -0.137352   0.137352    0.31627
 H                  2.2    3.28942    4.36593          3.77318e-15    0.129453    0.271706
 H              3.28326    3.28326     4.3511            0.137352   0.137352    0.31627
 H              4.37253    3.33161    4.37253           0.0826092  0.0403023  0.0826092
 H           -0.0397885    4.43979    4.43979          -0.0711717  0.0711717  0.0711717
 H              1.06839    4.37253    4.37253          -0.0403023  0.0826092  0.0826092
 H                  2.2    4.38607    4.38607          -1.85606e-14     0.079197     0.079197
 H              3.33161    4.37253    4.37253           0.0403023  0.0826092  0.0826092
 H              4.43979    4.43979    4.43979           0.0711717  0.0711717  0.0711717
