125

 H             0.848503  -0.666025   0.550576             0.262181  -0.0217022 0.000192149
 H              1.36268   0.311047   0.467348          0.00919861 -0.0542216   0.396681
 H              2.18477  -0.496617   0.543995           0.0450952  0.0194729  -0.151931
 H              3.04324   0.292224   0.465791            0.172557   -0.11392   0.119535
 H              3.57817  -0.675087   0.571994            0.176672   0.205275 -0.0526477
 H             0.434632   0.833648   0.129142          -0.0774203   0.103775   0.110719
 H              1.32955    1.41526    0.46824          -0.00242577   0.0993511  -0.0544367
 H              2.21979   0.862447   0.120085          -0.00584667   -0.125806  0.00406097
 H              3.10262    1.39961   0.470794           0.0116416   0.148093  0.0363375
 H              3.96276   0.816014   0.155727           -0.163576 -0.0649815 -0.0907425
 H             0.439561    1.95935  0.0987467           -0.050184  -0.110807   0.175701
 H               1.2982    2.51065   0.484801            0.138012  0.0488526 -0.0389153
 H              2.21074    1.96347   0.150292           -0.141508   0.124798   0.126787
 H               3.0984    2.52206   0.492507          -0.0833079   0.221137   0.119361
 H              3.99113    1.95207   0.145265           -0.187203 -0.0115652   0.158275
 H             0.379956    3.08017   0.179806              -0.17646    0.0608113 -0.000964637
 H              1.30437    3.59195   0.484967           -0.186504  0.0360602   0.271521
 H              2.19254    3.06918   0.157025          -0.0266368   0.113037 -0.0622991
 H               3.0873    3.61542   0.498271           -0.181275 -0.0536312  -0.289576
 H              3.99469    3.07405   0.145953            0.191735 -0.0738569 -0.0648621
 H             0.403232    4.19068   0.214731           0.0356595 -0.0795101  -0.258841
 H              1.30798    4.72213   0.538944          -0.0654637 -0.0558285 -0.0043517
 H              2.19723     4.1794   0.243839            0.106575 -0.0110566   -0.21003
 H              3.07288    4.73133   0.550466           0.0464707 -0.0765457   0.157007
 H              3.95985    4.19114   0.216206          -0.0585126 -0.0721347  0.0662672
 H             0.445774   0.283061    1.07806            0.153542   0.110735   0.130596
 H              1.38788  -0.269366    1.40795            0.101443  0.0814058 -0.0436588
 H              2.20314   0.363325    1.14974           0.0306531 -0.0578647  0.0325012
 H              3.04745  -0.250216     1.4349            0.230667 -0.0879844  -0.152635
 H              3.95862   0.262707    1.11372            0.105027  -0.113649    0.13465
 H             0.411365    1.39641    1.08875            0.0470539 -0.00950166  -0.0112857
 H              1.29793    0.85359    1.42228            0.172289  0.0863681 0.00295656
 H              2.21394    1.43332     1.1153           0.0769355  0.0245059 -0.0178625
 H              3.10276   0.864596    1.40983           -0.202398 -0.0947527   0.197867
 H              3.99619    1.39929     1.1129           0.0165736 -0.0659827   0.252445
 H             0.406329    2.50296    1.10781            0.139138  -0.115783  0.0098067
 H               1.3046    1.96071    1.43164           -0.242378   0.251628  0.0927885
 H              2.19845    2.50444    1.11884           -0.115737 -0.0442586 -0.0675619
 H              3.09924    1.95091    1.44059           -0.171174  0.0187183  -0.240049
 H              3.99846    2.50415    1.09171          -0.0599249 -0.0685281  0.0519858
 H             0.422845    3.60359     1.1432           -0.179271   0.053879   0.291327
 H              1.30375    3.02802     1.4438           -0.074177    0.06709 -0.0562698
 H              2.19336    3.58402    1.14293          -0.0451898 -0.0325133  0.0910422
 H              3.08308    3.03983    1.43947            0.196447 -0.0687554  0.0215633
 H              3.95989    3.60522    1.14412             -0.171776     -0.14855 -0.000199247
 H             0.425034    4.70576    1.19796            0.118745 -0.0389272   0.222631
 H              1.32079    4.12997    1.44434            0.301435  0.0419561  -0.397663
 H              2.18348    4.73001    1.22663           0.0963259  0.0987517 -0.0140252
 H              3.07501    4.14332    1.44849           0.0539555 -0.0476052 -0.0563407
 H              3.95991    4.76134    1.20684          -0.0210711  0.0315668 -0.0742459
 H             0.451507   -0.26895    2.02031          -0.0441765  -0.117959 -0.0277743
 H              1.29753   0.301251    2.34404          -0.0081878  0.0435816 -0.0999885
 H              2.20342  -0.272151    2.12182            0.162739  -0.143017  -0.173465
 H               3.0894   0.317288    2.35784           0.0037561  0.0991361  0.0500318
 H              3.98395   -0.29262    2.04108          -0.0555463  -0.117198  0.0624904
 H             0.398503   0.844959    2.03735           -0.0282514    0.390109 0.000414496
 H              1.31595    1.38172      2.392            -0.035336  -0.0765967 -0.00294658
 H              2.21422   0.854108      2.078            0.0461469   -0.151868 -0.00160851
 H              3.10287    1.40763    2.37237          -0.0558218  0.0443456  -0.170795
 H              3.99684   0.853705    2.06899          -0.0258472  -0.241519   0.114676
 H             0.401132    1.95124    2.05586          -0.0640098    0.12434   0.118801
 H               1.3039    2.49394    2.39026          -0.0196316  0.0815343  -0.133942
 H              2.18972    1.93897    2.08485          -0.0664279    0.07099  -0.381242
 H              3.10341    2.48303    2.39169            0.164759 0.00579663  0.0853151
 H              4.01627    1.96148    2.06959            0.144686 -0.0174639   0.110307
 H             0.392634    3.02807    2.09196          -0.0692276  -0.107372   0.359124
 H              1.30186    3.56826    2.39804          -0.0902893   0.046777 -0.0943018
 H              2.20387    3.02808    2.06983           -0.131362 0.00505868  -0.111199
 H              3.11054    3.56991     2.3861          -0.0775603 -0.0111809  0.0494429
 H              4.01672    3.05215    2.07503           -0.117838   0.271308   0.151702
 H             0.426656    4.14006    2.12529            0.227244  0.0629592  0.0379831
 H              1.33218    4.71863    2.37984            0.176337  -0.149916  0.0279255
 H                2.191    4.11076     2.1081           0.0372358   0.037114  0.0887812
 H              3.04854    4.73164    2.35404           0.0127674    0.10778  -0.184641
 H              3.96907    4.18478    2.13698            0.200859  -0.224896   0.133349
 H             0.368952   0.291876    2.99272            0.165355   0.043632  -0.137812
 H                1.272  -0.313012    3.24691           -0.146853    0.03244   0.145897
 H              2.19924   0.295793    3.03429            0.214506   0.140125 -0.0631924
 H              3.07362  -0.323889    3.24968            0.012765 -0.0736059 -0.0342839
 H              4.00269   0.282563    2.98289           -0.145737  -0.074767   0.182537
 H             0.388529    1.39032    3.00326          -0.0832769  -0.265457   0.120775
 H              1.27807   0.819556    3.31239           -0.129217 -0.0027707   -0.10997
 H              2.21753    1.37728    3.03271          -0.0892702   0.204244  -0.148122
 H               3.1105   0.828557    3.33008          -0.0646758  0.0636653    0.15721
 H              4.00599    1.39045    3.00986            0.0552373   0.0518914 -0.00580476
 H              0.39605    2.47139    3.04497           -0.198518  0.0443445  -0.206773
 H              1.30848    1.92821    3.34413          -0.0322027   0.107461   0.164098
 H              2.19831     2.4817     3.0219          -0.0877828 -0.0696536  -0.119035
 H              3.10844    1.91906    3.33048           0.0387317   0.131678 -0.0621488
 H              3.99387    2.49235    3.03063            0.131702 0.00882961 -0.0156034
 H             0.404444    3.58209    3.05467            0.0146849 -0.00916613     0.11337
 H              1.31865    3.01429    3.34112          -0.0142059 -0.0682966 -0.0812613
 H              2.20163    3.55875    3.01858          -0.0947683   0.115217 -0.0564993
 H              3.09513    3.01062    3.34412           -0.251606   0.164207  -0.106882
 H              4.02119    3.60593     3.0546           -0.042658 -0.0950584   -0.19105
 H             0.498733    4.72715     3.0784           -0.278933  -0.184587   0.136557
 H              1.33682    4.08901    3.33259          -0.0988387  -0.293224  -0.140341
 H              2.20254    4.70485    3.04952            0.146484   0.176652  0.0625032
 H              3.07633    4.08839    3.31797             0.15686  -0.218926 -0.0826079
 H              3.89121    4.76982    3.08899          -0.0708731   -0.19784   0.206016
 H             0.353088  -0.327504    3.90727          -0.0622918  -0.376375 -0.0596201
 H              1.25983   0.210655    4.22988          -0.0222407 -0.0651995   0.108986
 H              2.16856  -0.335372     3.9294           0.0529383 -0.0206244  -0.240319
 H              3.06194    0.21877    4.21791            0.221054 -0.0472652  -0.133324
 H              3.95199  -0.345139    3.90165             0.11473   0.100692  -0.369362
 H             0.384321   0.810012    3.94467           -0.107929  0.0941203 -0.0568867
 H              1.28868    1.34865    4.28457           -0.150829 -0.0602905   0.129914
 H              2.16972   0.812731    3.97943           -0.159347 -0.0633737   0.126381
 H              3.10603    1.34165     4.3064          -0.0506574   0.175446  -0.004763
 H              4.01728   0.782342    3.93271           0.0533111  0.0668002  0.0335539
 H             0.402017    1.92421    3.98705            -0.0712763 -0.000438026    0.0219709
 H              1.32353    2.46128    4.30909            0.163141  0.0859142 -0.0420675
 H              2.21364    1.89425    3.97827           0.0335565  -0.119885    0.11261
 H              3.11075    2.45672    4.29037           -0.100299  0.0749558  -0.128984
 H              4.00099     1.9189    3.97357          -0.0726508   0.168749 -0.0541517
 H             0.422309    3.04732    3.99608          -0.0145599  -0.108383 -0.0660796
 H              1.34813    3.59335    4.31653            0.0826035  0.00208978 -0.00456371
 H              2.21931    2.99748    3.98384           0.0346092   0.308792  -0.186182
 H              3.08487     3.5744     4.3016           -0.325755 -0.0445928  0.0654467
 H              4.00334    3.02655    3.98743           0.0999387   -0.19456   0.350796
 H             0.486473    4.15794    4.02791          0.00229643   0.202651  0.0725036
 H              1.49371    4.98884    3.88113            0.174827 -0.0138854  -0.164249
 H              2.20994    4.14656    3.98437            0.166469  0.0432341  0.0994115
 H              2.95603    5.00789    3.84096             0.10761  -0.149364  -0.313787
 H               3.9288    4.17995    4.00193            0.090213  0.0508673   0.103541
