125

 H            0.00900615 -0.00659257   0.0229082            0.306604   0.258651   0.328112
 H              1.07036   0.293842   0.323772            0.438159   0.143075   0.257467
 H              2.13857  0.0100718   0.111559           -0.277066 -0.0049333   0.167553
 H              3.24851   0.319984   0.321513           -0.092307   0.487248    0.26467
 H               4.30158  -0.0291311 -0.00883999           -0.531427   0.121535   0.167052
 H             0.312896    1.05331   0.326921            0.386548   0.337619   0.464068
 H              1.30603    1.30044  0.0258759            0.139091   0.118903   0.276255
 H               2.3355    1.02935   0.286042             0.59634  -0.263087  -0.154163
 H              3.33669    1.33889  0.0376753            0.159015   0.318206   0.323502
 H              4.33264    1.03794   0.302615           -0.257715   0.046341   0.240208
 H            0.0413826    2.12572  0.0856244            0.145163  -0.354043   0.183284
 H              1.05431    2.35664   0.271233           -0.250794   0.620914  -0.127508
 H              2.07148    2.05067   0.041985           -0.329447  -0.383416  0.0551456
 H               3.0624    2.33766   0.268526          -0.0991624   0.260094 -0.0159594
 H              4.08081    2.13213  0.0720219           -0.668777  -0.198817   0.294198
 H              0.31254    3.23054   0.310147            0.682067  -0.230425   0.602829
 H               1.3348    3.36054  0.0485815            0.367552   0.347927   0.328555
 H              2.31719    3.05119   0.273213           0.0910862  -0.149963 -0.0525652
 H              3.33075    3.35206   0.054654             0.23411   0.310179   0.609872
 H               4.3753    3.23995   0.299793           -0.081005   -0.29405   0.610862
 H           -0.0207888    4.29936 -0.0128025             0.11903  -0.537173   0.127253
 H              1.04227    4.36903   0.285633           0.0405954  -0.160315   0.135683
 H              2.14162    4.08739   0.108605           -0.150246  -0.602015   0.374284
 H              3.25451    4.40562   0.286484            -0.237824 0.000408509    0.470322
 H              4.33319    4.32645 -0.0431071             -0.4167  -0.450176  0.0016176
 H             0.292916   0.278619    1.08244           0.0836578  0.0454681   0.461027
 H              1.26796  -0.164415    1.27902           0.0475467  -0.164518  0.0820671
 H              2.30649   0.258459    1.11228            0.479083  0.0371763  -0.164068
 H              3.29415 -0.0921422    1.29828            0.216895 -0.0562613   0.400488
 H              4.26601   0.283737    1.05385           -0.547412   0.142466   0.110271
 H           -0.0646411    1.28068    1.29803           0.0833454   0.112183   0.164556
 H              1.08046    1.04223     1.1054          -0.0408029  -0.048875  0.0449008
 H              2.05577    1.27678    1.29097          -0.0609788   0.275225   0.215145
 H              3.08596    1.00676    1.08761            0.276979  0.0737813   0.311265
 H              4.12396    1.33345    1.30491            0.430499   0.434347   0.217946
 H              0.25653    2.34553     1.0893           0.0232801    0.59169  -0.230589
 H              1.26856    2.02446    1.28232           0.0860034 -0.0163837  0.0737794
 H               2.3203      2.336    1.06061           -0.263456  -0.145156   0.417363
 H              3.34042    2.05301    1.29173          -0.0995678  -0.216671  -0.692944
 H              4.37885    2.33483     1.0633           -0.348231   0.324665  -0.392095
 H           -0.00632981     3.34327     1.31855            0.199915   0.427979   0.470532
 H               1.0501    3.07886    1.08252          -0.0805175  0.0294828   0.040279
 H              2.07192    3.39056    1.31394           -0.120947  -0.109753  -0.723777
 H              3.08338    3.08436    1.13585            0.582155   0.403169 -0.0196014
 H              4.08185    3.32522    1.33726           -0.158591  0.0956031   0.666685
 H             0.274332    4.34142    1.04902            0.119036  -0.263639  0.0698902
 H              1.32217    4.14643    1.30663            0.414593   0.312867   0.346493
 H              2.29279    4.44351    1.08304            0.339358  0.0067609  -0.485226
 H              3.27716    4.09602    1.33973           0.0622467  -0.166983   0.797048
 H              4.28477    4.34466    1.04959           -0.265874 -0.0627533  -0.160402
 H            0.0888886  0.0286905    2.15296            0.074248 -0.0652547  -0.193105
 H              1.09311   0.269851    2.28456           -0.184836 0.00234876   0.463658
 H              2.09909 -0.0469005    2.11596           -0.665669  -0.346975  -0.568598
 H              3.07663   0.258081    2.28835            0.048505   0.144084   0.157109
 H               4.1265 0.00618151    2.14314           -0.536875  0.0638897  -0.230703
 H             0.283877    1.04393    2.30373          -0.0376637  -0.283871     0.5676
 H              1.29307    1.29277    2.07339            0.396203   0.455904  -0.176805
 H              2.34023    1.00193    2.32533           -0.458227   0.424888  -0.589319
 H              3.34647    1.31062    2.07671           -0.145392  -0.327472  0.0804886
 H              4.38335    1.01433    2.29817           -0.174991  -0.644676   0.251753
 H            0.0121998    2.05769    2.09779          -0.0338025  -0.630227  -0.457656
 H              1.04487     2.3398    2.30874            0.384914  -0.218753  -0.527192
 H              2.06291     2.0557    2.06426           -0.079346  -0.150989  0.0897763
 H              3.11189    2.35271    2.32354           -0.227624 -0.0214409  -0.017085
 H              4.16005    2.03951     2.0718           -0.476863  -0.032202 -0.0195119
 H             0.268829    3.05135    2.29987           0.0614769  -0.102911  0.0996543
 H              1.31621    3.39561    2.08333           -0.572788   -0.15001 0.00786792
 H              2.33605    3.11147    2.33033          -0.0227893  -0.379134 -0.0647611
 H              3.33959    3.36806    2.10895           -0.142113  0.0132301  -0.256033
 H              4.44962    3.08763    2.29443          -0.0255252  -0.671994  -0.216952
 H            0.0826231    4.10868    2.14627            0.300255  -0.627822  -0.179231
 H              1.06572     4.4526    2.27506           -0.569309   0.104899   0.239871
 H              2.07959    4.15724    2.09232           0.0757729  -0.382796  0.0621118
 H              3.11524    4.52271    2.28121           -0.654733   0.120946  -0.196752
 H              4.09283     4.0901    2.14366          -0.0459205  -0.114622  -0.153505
 H             0.318837    0.31549    3.27082            0.110634   0.264397  0.0316983
 H              1.29469  -0.109562    3.26854            0.349148 -0.0313769  0.0343309
 H               2.3062   0.257273    3.08964            0.221525   0.267739 -0.0378633
 H              3.29636 -0.0551658    3.28157            0.386436   0.146126    0.29662
 H              4.31307   0.262425    3.25874           -0.257528   0.437164  -0.207388
 H           -0.0300653    1.32223    3.29525            0.193478   0.364024  0.0531778
 H              1.06639    1.01636    3.08787            0.380665   0.220838   0.441302
 H              2.06761    1.30796    3.31146          -0.0192398   -0.21259  -0.149091
 H              3.09459    1.02672    3.09012            0.655451 -0.0190397   0.752145
 H              4.09131     1.3558    3.27904          -0.0167166   0.791362  -0.004405
 H             0.260314    2.34086    3.07989            0.178169     0.3205  -0.129146
 H              1.29163    2.05089    3.30735           -0.441685   -0.19718 -0.0964647
 H              2.32123    2.34874    3.10368            0.0317899  -0.0168653 -0.00501096
 H               3.3499    2.09346    3.33707          -0.0785408  -0.581276  -0.200036
 H              4.42705    2.31768     3.0897           -0.143386  0.0270414  -0.624418
 H           0.00970907    3.34486    3.30398            0.422938   0.433036   0.241114
 H              1.09402    3.08717    3.08531          -0.00291869    0.492758    0.747364
 H              2.10215    3.37612    3.32838           -0.438091 -0.0833574  -0.364877
 H              3.09816    3.09829     3.0984           0.0302671 0.00928982  0.0394371
 H              4.08403    3.31265      3.267            0.284764   0.357321   0.267488
 H             0.268018    4.38492    3.26409            0.407938  -0.045708  -0.199715
 H              1.34665    4.10132    3.25526            0.820203  -0.100147 0.00751928
 H              2.28983    4.51242    3.11117          -0.0963421  0.0787321  -0.617553
 H              3.26092    4.09875    3.24542             0.20989  0.0850404   0.181313
 H              4.28551    4.33992    3.24835           -0.243781  -0.058486  -0.254237
 H           -0.0140967 -0.0275671    4.30564            0.182985   0.144131  -0.506581
 H              1.05152   0.296601    4.22868            0.134233  0.0975953  -0.640702
 H              2.13451 -0.0219274    4.11331           -0.275187  0.0324859  -0.517654
 H              3.24583   0.281293    4.28978           -0.242828   0.509993  -0.298419
 H              4.33005 -0.0607644    4.33829            -0.42418 -0.0737664  -0.376197
 H             0.306769    1.04146    4.26982            0.220354  0.0947587  -0.445185
 H              1.31391    1.32253    4.10257            0.198975   0.354924   0.568917
 H              2.33189    1.00138    4.33067            0.242208  -0.512242  -0.387022
 H              3.31535     1.3508    4.07141          0.00767202    0.70565  0.0899928
 H              4.32701    1.03079    4.28316           -0.198152  -0.180878  -0.313105
 H            0.0184132    2.12677    4.09061            0.182244  -0.281214  -0.659633
 H              1.03319    2.35281    4.32993           -0.342744   0.213145  -0.500944
 H              2.04969    2.02898    4.15782          -0.0279868 -0.0633573  -0.427672
 H               3.0762    2.31985    4.38343           -0.533833  -0.107433  -0.175935
 H              4.06715    2.12501    4.07001           -0.340493  -0.166213  -0.311939
 H             0.299735      3.236    4.32784            0.637967   -0.28928  -0.182744
 H              1.34062    3.34358    4.06844            0.602108  0.0618092  0.0225876
 H              2.30615    3.07131    4.39297           -0.232941  -0.531917  -0.127397
 H              3.29607    3.32576    4.07823            0.315777    0.38283   0.552284
 H              4.32772    3.23471    4.29505           -0.238799  -0.351932   -0.32174
 H           -0.0487919     4.3244     4.3396          -0.0178312  -0.454481  -0.373618
 H              1.04315    4.36431    4.25705           -0.160112 -0.0510117  -0.377393
 H              2.13807    4.07843    4.08209           -0.114643  -0.106042 -0.0201064
 H              3.24256    4.35559    4.26964           -0.298564 -0.0755311  -0.334597
 H               4.3604    4.35463     4.3652           -0.279307  -0.284965  -0.264812
