125

 H             0.845517  -0.722004   0.589975            0.264833 0.00892298  0.0223282
 H              1.30216   0.311449   0.436261           -0.0419604 -0.00344478   -0.181099
 H               2.1123  -0.466226   0.415276           -0.0940959   -0.321198 -0.00711389
 H              3.02764    0.29523   0.448963          -0.0708458   0.296642  -0.377912
 H              3.84353  -0.413605   0.282152               0.216  -0.154741   0.069334
 H              0.36933   0.872859  0.0997685           -0.085797 -0.0462554  -0.110224
 H               1.2829    1.40661   0.461893             0.12414   0.042698 -0.0586507
 H              2.17589   0.868696   0.151009          -0.0483976   0.226698 -0.0943397
 H              3.08024    1.39785   0.483419           -0.0622355     0.23328 -0.00416864
 H              3.95294    0.82404   0.132112             0.112959 -0.00533869   0.0681999
 H             0.360822     1.9577   0.165177             0.14413 -0.0632821   0.240814
 H               1.3079     2.5083   0.471325           -0.285601 -0.0500834  0.0967922
 H              2.18102    1.96003   0.165541            0.139092   0.112179   0.274478
 H              3.06424    2.50613   0.489702           0.0378524  0.0391121   0.435481
 H              3.96457    1.93191   0.179266           0.0714728  0.0558097  -0.069108
 H             0.406379    3.07313   0.147815          -0.0413899  -0.140443 -0.0220776
 H              1.28885    3.62081   0.510676            0.103517   -0.11052  0.0195832
 H              2.19568      3.077   0.165099           -0.030995  0.0635847    0.39775
 H              3.09536    3.61777   0.507195            0.145828   0.113033   0.181694
 H                3.957    3.05967   0.164607          -0.0418365   0.134599 -0.0483298
 H             0.380811    4.17214   0.173714           -0.127575  0.0196726  -0.251747
 H              1.31213    4.73572   0.512433          -0.0959937   -0.12693 -0.0612418
 H              2.20168    4.17532   0.203101          -0.0252735 -0.0383008  0.0823334
 H              3.07006    4.73112   0.521522           0.0314174   0.139271  0.0238377
 H              3.99917     4.1805   0.243924           -0.187708  -0.312878  -0.416739
 H             0.408531   0.284623     1.0315           0.0636763   0.122181   0.101674
 H              1.32661  -0.239541    1.40336           -0.094315   0.189878   0.106015
 H              2.18631   0.335798    1.11906          -0.0780983   -0.10832  -0.145329
 H              3.06863  -0.284427    1.36862           -0.284719 -0.0408389  0.0307241
 H              3.97465   0.292194    1.12903            0.0515635   -0.178892 -0.00639881
 H             0.398349    1.40463    1.08721           0.0976438 -0.0665452  0.0828846
 H              1.29089    0.84897    1.42109            0.205262  -0.189556 -0.0726104
 H              2.20032    1.41127    1.11443           0.0661098 -0.0483278   0.150251
 H              3.08241   0.838712    1.43832           0.0282239 -0.0935797  0.0162714
 H              3.97126    1.36667    1.12952           0.0464349   0.149164  -0.242151
 H              0.42945    2.50386    1.09659             0.01563   0.140719  -0.296642
 H              1.30081    1.94641    1.41793          -0.0553805  0.0826124 -0.0400156
 H              2.19549    2.49176    1.13255          -0.0455815 0.00858694   0.117674
 H              3.08734    1.94759    1.44265            0.215902   0.012449  0.0149538
 H              3.98324    2.49179    1.13516          0.00873161  0.0248481  -0.079721
 H             0.403305    3.60422    1.12031           0.0507177  0.0240168  0.0514741
 H              1.31324     3.0424    1.43789           0.0848609  0.0650962   0.190258
 H              2.18798    3.60685    1.14679           0.0240213    0.22701  0.0179613
 H              3.08871    3.04368    1.44014           0.0847536   0.125393 0.00307277
 H              4.01725    3.59302    1.16745           0.0006897  -0.189634  -0.064813
 H             0.426004    4.67853    1.15761           -0.086776  -0.214718   0.169393
 H              1.32062    4.13647    1.45171           0.0485582   0.144646  0.0753357
 H              2.20002    4.72431    1.18847           0.0910357   0.207711  -0.111973
 H              3.09772    4.12851    1.45891           -0.187906   0.300671 -0.0690284
 H              3.96873    4.70539    1.19168          -0.00488972    -0.30395   -0.242794
 H             0.400662  -0.260845    2.00425           -0.350487 -0.0118577 -0.0613352
 H              1.29048   0.272834    2.37774           -0.128611   0.244306   0.105319
 H              2.20388  -0.275772    2.05788           0.0361334  0.0354411   0.150262
 H              3.09144   0.290261     2.3525           -0.173112  -0.134615   0.111242
 H              3.91522  -0.313427    2.09028           -0.160112  -0.421481  0.0252572
 H             0.390427   0.847153    2.04774           -0.013799   0.162021  -0.194068
 H              1.29049    1.38181     2.3608          -0.00297538   0.0506296  -0.0158019
 H              2.17737   0.836274    2.06868           -0.182266  0.0943929  0.0794784
 H              3.08785    1.38136    2.38066           0.0831982  -0.144433  -0.188792
 H              3.99704   0.815385    2.07656           0.0161636 -0.0726645  0.0410165
 H             0.399308    1.93248    2.04155           0.0434572  0.0139575  0.0372854
 H              1.30969    2.45832    2.38589            0.128857  0.0325427  -0.159922
 H              2.19385    1.92504    2.06797           0.0717155 -0.0947651  -0.122682
 H              3.09896    2.47572    2.40825            0.137783  -0.120249  -0.126569
 H              3.99201    1.91474    2.08034           0.0992746  0.0218411  -0.106791
 H             0.428296     3.0274    2.05526           -0.122658  -0.218542  0.0247217
 H              1.30909    3.56175    2.39749          -0.00395437  -0.0449054    -0.11169
 H              2.20408    3.02652     2.0779            0.172774 -0.0477558  0.0818393
 H              3.09257    3.56037    2.39698          -0.00281634   0.0248414  -0.0831547
 H              3.98694    3.03009    2.11532           0.0468843  -0.144356  0.0677442
 H             0.454859    4.14173    2.10418           -0.104218  0.0108326  0.0942616
 H              1.32771    4.71244    2.39414          -0.0570655   0.372051 -0.0931751
 H               2.1946     4.1369    2.10954            0.226296  0.0619792  -0.212207
 H              3.06009     4.7027    2.39349           -0.188509   0.259963   0.114689
 H              3.98569     4.1454    2.14345          -0.0902061   0.234421   0.176748
 H             0.378002   0.261744    2.99192           -0.146648  -0.152758 -0.0172976
 H              1.28965  -0.290887    3.30781          -0.0882567  -0.080397   0.154803
 H              2.20713   0.272803    3.01305             0.15229  0.0210047  0.0489177
 H              3.12276  -0.277213    3.30884           0.0408546  -0.105393 -0.0913859
 H              4.02783   0.280022    3.02375           0.0632444 -0.0633564 0.00183808
 H             0.401042    1.36062    3.00649            0.151522 -0.0797826   0.141694
 H              1.29144   0.818728    3.31619            0.180469   0.188432  0.0497183
 H              2.18636    1.37394     3.0183           0.0993073   0.117076  -0.134781
 H              3.09922   0.831332    3.32499            0.173374  -0.141318  0.0268409
 H              3.99397    1.38626    3.01994           -0.145737 -0.0849376   0.018206
 H             0.409026    2.46884    2.99051           0.0431356 -0.0433772  -0.100473
 H              1.29921    1.92616    3.32694          -0.0114479  0.0811903  0.0581394
 H              2.20831    2.46925     3.0184            0.115898  0.0808496  -0.115101
 H              3.10595     1.9269    3.34382           -0.069117 0.00690895  0.0995085
 H              4.01319    2.47136    3.04649            0.146274  -0.261281 -0.0135664
 H             0.392475    3.57294    3.03687           0.0912498  0.0193856 -0.0161891
 H              1.30541    3.00376    3.33383           0.0358518  -0.129623 -0.0329758
 H              2.19517    3.56708    3.02507          -0.0365572  0.0166079  -0.145373
 H              3.12615    3.02142    3.36026            0.134772    0.21379   0.029421
 H              4.01281    3.58388     3.0747          -0.0398198  0.0413319   0.109654
 H             0.452515    4.70768    3.06639          -0.0767028   0.379436    0.11579
 H              1.32638     4.0879    3.31193            0.120911 -0.0452328   0.135564
 H              2.20113    4.70051    3.05469            -0.23544  0.0334838  -0.032421
 H              3.08524    4.08571    3.33294           -0.305802  0.0353279   0.130684
 H              3.90633    4.77227    3.11504          -0.0781202   0.137585   0.190202
 H             0.352076  -0.313471    3.95481           0.0939522   0.108588  -0.034468
 H              1.28245   0.247678    4.26131            0.215128 -0.0656147   0.190323
 H              2.21581  -0.305869    3.95278          -0.0538699  -0.290292   0.198654
 H              3.11193    0.25854    4.26271           -0.116132  -0.229971  -0.125984
 H              4.03457  -0.279758    3.98787           -0.284643  -0.088157   0.243643
 H             0.397222   0.828531    3.96724           0.0204564   0.130406   0.159321
 H              1.30811    1.36439     4.2728           0.0541713  -0.054088  0.0490043
 H              2.20863   0.805137     3.9576          -0.0046575  -0.154782  0.0648078
 H              3.09825    1.37486    4.27978           0.0623451  0.0524284  -0.148685
 H              4.01607   0.824188    3.97259           0.0784045 -0.0710446  0.0913283
 H             0.406991     1.9349    3.97468           0.0836115 -0.0615763  -0.186059
 H               1.3436    2.47744     4.2936            0.155266 -0.0320666  -0.232026
 H               2.2107    1.92005    3.95777           0.0382071   -0.28152  0.0806755
 H              3.10315    2.47245    4.30831            0.114808  0.0786915   -0.20923
 H              4.00148    1.92853    4.01605            -0.0460379 -0.000534828    -0.273739
 H             0.424572    3.05508     4.0058          -0.0634307  0.0553832 -0.0610185
 H              1.35393    3.56723    4.30888           -0.169109   0.152001   0.148991
 H              2.24125    3.02187    3.97057          0.00205866  0.0206968 -0.0527766
 H              3.10857    3.59788    4.32949            0.147074 -0.0958119 -0.0510814
 H              4.00814    3.04509    4.04159           -0.119054 0.00783046  0.0377962
 H             0.517618    4.17758    4.02701           0.0321937  -0.186329 -0.0369895
 H              1.48864    4.95524    3.89565          -0.0619495   0.115845  -0.285496
 H              2.21493    4.14331    3.98734           0.0394094  0.0468607   0.103603
 H              2.96021    5.00569    3.85764           -0.281339    0.15308  0.0155095
 H              3.96581    4.19792    4.04824             -0.2318  -0.161282   0.102466
