125

 H            0.0160221  0.0156447  0.0164438          -0.0988349  -0.101717 -0.0956768
 H              1.10863  0.0564968   0.054131           -0.116572   0.182253   0.171087
 H              2.19723   0.019523   0.025065           -0.015972  -0.280108  -0.239996
 H              3.28601  0.0572281  0.0551477           0.0802193   0.186005   0.176127
 H              4.37942  0.0164107   0.017062           0.0674794 -0.0987664  -0.093876
 H            0.0547632    1.10816  0.0535021            0.170882  -0.120267   0.164678
 H               1.13919     1.14111 -0.00502837            -0.014999 -0.00408365   -0.141433
 H              2.21058    1.10989  0.0642045            0.067372  -0.265999  0.0258688
 H               3.28052     1.14174 -0.00997939             0.132669 -0.00305327   -0.166488
 H              4.36269    1.10891  0.0505117          -0.0530303  -0.120157   0.139288
 H            0.0218393    2.19668  0.0244959           -0.265462 -0.0191752   -0.24658
 H              1.11246    2.21262  0.0638595           -0.249058  0.0803145  0.0242205
 H              2.18684    2.18435 -0.0403177          -0.0887662  -0.105567  -0.375394
 H              3.26031    2.21263  0.0645122           0.0693261  0.0806585  0.0493889
 H              4.35348    2.19664  0.0232512             0.10681 -0.0197117  -0.247684
 H            0.0556683    3.28544  0.0546535            0.175418  0.0768538     0.1703
 H              1.13999    3.28239 -0.0106341          -0.0134379   0.144262  -0.169629
 H              2.21066    3.25777  0.0645925             0.06813  0.0526998  0.0538901
 H              3.27979     3.2817 -0.0156209            0.130425   0.141797  -0.194698
 H              4.36192    3.28476  0.0515457          -0.0563358  0.0774762   0.142891
 H            0.0169142    4.37891  0.0172211          -0.0954504  0.0642256 -0.0931805
 H              1.10949    4.36434  0.0504264           -0.116689 -0.0416116   0.139863
 H              2.19716    4.35116  0.0237541          -0.0166498  0.0920499   -0.23992
 H              3.28517    4.36362  0.0513621           0.0807433 -0.0448923   0.143115
 H              4.37849    4.37815   0.017921           0.0635884  0.0610689 -0.0899883
 H            0.0559727  0.0571207    1.10915            0.182896   0.188176  -0.112569
 H              1.14019 -0.0186708    1.13817          -0.00733207   -0.224837  -0.0184633
 H              2.21061  0.0794389    1.11699           0.0679088   0.115158  -0.212117
 H               3.2795 -0.0220033    1.13918            0.124173  -0.240389  -0.015212
 H              4.36162   0.053487    1.10971          -0.0639227   0.158722  -0.113833
 H           -0.0118422    1.14161    1.13761             -0.182787 -0.000555126   -0.0230581
 H              1.08894    1.08189    1.09595            -0.15035  -0.195708  -0.106437
 H              2.16505    1.16609    1.15089           -0.173878   0.340925   0.256428
 H              3.24241    1.08165    1.09395            -0.27216  -0.184527  -0.106051
 H              4.34675    1.14021    1.13683           -0.223191 0.00476094 -0.0150277
 H            0.0712714    2.21266    1.11582           0.0679605  0.0807728  -0.224265
 H              1.15777    2.15835    1.15037            0.293377  -0.206234   0.251933
 H              2.24614    2.25485    1.05545            0.250031   0.296182  -0.409864
 H              3.33484    2.15879    1.14977            0.265261  -0.199754   0.253837
 H              4.42118    2.21225    1.11137            0.501539  0.0751356  -0.241905
 H           -0.0161061    3.28197    1.13873           -0.203276   0.140714 -0.0198377
 H              1.08835    3.23622    1.09393           -0.139049  -0.306759  -0.103468
 H              2.16525    3.34397    1.14974            -0.16843   0.320178    0.25607
 H              3.24321    3.23713     1.0923           -0.281088  -0.313062  -0.100552
 H              4.35096    3.28361    1.13789           -0.200424   0.140319 -0.0140407
 H            0.0517494    4.36389    1.10986            0.148461 -0.0462426  -0.113853
 H              1.13863    4.34103    1.13713          -0.000646422    -0.257499  -0.00926849
 H               2.2103    4.43039    1.11186           0.0628802   0.557884  -0.232364
 H               3.2815    4.34477    1.13809             0.123516   -0.237153 -0.00823918
 H              4.36582    4.36734    1.11047          -0.0294338 -0.0176266  -0.114163
 H            0.0228032  0.0197615    2.19783            -0.25411  -0.276348 -0.0125808
 H              1.11447  0.0799806    2.20847           -0.228646   0.117416  0.0545566
 H               2.1868  -0.063498    2.18925           -0.088723  -0.515027 -0.0723429
 H              3.25821  0.0788725    2.20898           0.0471173   0.134318  0.0576735
 H              4.35254  0.0192633    2.19761           0.0962769  -0.273284 -0.0139749
 H            0.0717839    1.11055    2.20842           0.0699332  -0.258747  0.0540167
 H              1.15862     1.1668    2.17176            0.300929   0.345846  -0.141559
 H              2.24605    1.03173    2.23806            0.249366  -0.553359   0.207114
 H              3.33401    1.16425    2.17055            0.259232    0.33598  -0.143688
 H              4.42055      1.107    2.20881            0.498241  -0.270406  0.0540655
 H           -0.0506724    2.18415    2.18923           -0.438222  -0.106719 -0.0728469
 H               1.0449    2.25516    2.23806           -0.473813   0.297586   0.207174
 H              2.13419    2.12156    2.14442           -0.374675  -0.443652  -0.317814
 H              3.22636     2.2557    2.24038           -0.283631   0.302767    0.22047
 H               4.3202    2.18403    2.18831           -0.353341  -0.110764 -0.0809798
 H            0.0707322    3.25672    2.20892           0.0909946  0.0424385  0.0570714
 H              1.15589    3.34402    2.17063            0.291424    0.31997  -0.142761
 H               2.2469    3.21483    2.24041            0.256134  -0.343801   0.221021
 H              3.33685    3.34607    2.16951            0.258727   0.316829   -0.14495
 H              4.42244    3.26069    2.20922            0.486595  0.0627325  0.0561095
 H            0.0221503    4.35062     2.1976           -0.250256  0.0869537 -0.0140679
 H              1.11007    4.43053    2.20878            -0.24405   0.558829     0.0537
 H              2.18655    4.30811    2.18833           -0.093701  -0.419862 -0.0809404
 H              3.26277    4.43182     2.2092           0.0696938   0.547659  0.0558128
 H              4.35262    4.35077    2.19739           0.0861898  0.0789348 -0.0155701
 H            0.0565777   0.057776    3.28665             0.18604   0.191397  0.0838269
 H              1.14074 -0.0219812    3.27749          -0.00588624   -0.240877     0.11208
 H               2.2107  0.0791351     3.2607           0.0686401   0.132226  0.0633721
 H              3.27904 -0.0256726    3.27737            0.122443  -0.258082   0.112639
 H              4.36113   0.054152    3.28575          -0.0660102    0.16084   0.083328
 H           -0.0148176    1.14222    3.27807            -0.197201 0.000728549    0.117039
 H              1.08838    1.08104    3.24867           -0.143711  -0.190375  -0.236979
 H              2.16512    1.16467    3.32566           -0.170108   0.336597   0.209137
 H              3.24296    1.08088    3.24813            -0.27777  -0.178038  -0.250112
 H              4.34966    1.14088    3.28033           -0.207367 0.00473616   0.119674
 H            0.0705246    2.21286    3.26192           0.0822727  0.0820599  0.0763126
 H              1.15596    2.15814    3.32611            0.287946  -0.203147   0.212673
 H              2.24684    2.25606    3.23579            0.255683   0.304499  -0.232926
 H              3.33691    2.15849    3.33023            0.264749  -0.197595   0.221922
 H              4.42258    2.21243    3.26497            0.493669  0.0758898  0.0898541
 H           -0.0194834    3.28164    3.27782           -0.219527   0.139978   0.117344
 H               1.0879    3.23648    3.24827           -0.130728  -0.314042  -0.251879
 H              2.16525     3.3465    3.33018           -0.165541   0.321673   0.218454
 H              3.24349    3.23713    3.24753           -0.290613  -0.323857  -0.268151
 H              4.35418    3.28327    3.28003           -0.183324   0.140821   0.121461
 H            0.0523086    4.36353    3.28561            0.149944 -0.0472533   0.083436
 H              1.13922     4.3437    3.28003          -0.000729248     -0.24278     0.114081
 H              2.21038    4.43227    3.26452           0.0630247   0.552767  0.0808362
 H              3.28104    4.34768    3.27985            0.123203  -0.221464   0.116118
 H              4.36544    4.36705     3.2847          -0.0293987 -0.0170311  0.0819864
 H            0.0166069  0.0162047    4.37999          -0.0967335  -0.099752  0.0709848
 H               1.1092  0.0538276    4.35981           -0.116764    0.16001 -0.0762954
 H              2.19717  0.0187012    4.35481          -0.0166221  -0.280094   0.110457
 H               3.2854  0.0543654    4.35964           0.0804647   0.161387 -0.0760419
 H              4.37876  0.0170721    4.37904           0.0648465 -0.0957496  0.0669641
 H            0.0519826     1.1087    4.36045            0.148103  -0.120694 -0.0697262
 H              1.13814    1.14023    4.35253          -0.0105457 0.00145587  -0.188843
 H              2.21039    1.10653    4.41215           0.0641027  -0.278108   0.446899
 H              3.28199    1.14082    4.35489            0.132879 0.00125865  -0.176079
 H              4.36569     1.1095    4.36449          -0.0285167  -0.120178 -0.0376509
 H             0.021214    2.19657    4.35536           -0.264173 -0.0201273   0.116884
 H              1.10929    2.21252    4.41247            -0.26029  0.0771073   0.448736
 H               2.1866     2.1839    4.33006          -0.0924564  -0.111018  -0.297251
 H              3.26346    2.21252    4.41581           0.0845138  0.0768762   0.448867
 H              4.35343    2.19651    4.35478           0.0993915 -0.0208803   0.105107
 H            0.0526944    3.28479    4.36013            0.150042  0.0769294 -0.0700359
 H              1.13891    3.28402    4.35568          -0.0105367   0.145584  -0.171893
 H              2.21046    3.26076    4.41567           0.0642752  0.0675738   0.444279
 H              3.28133    3.28341     4.3583            0.132085   0.144332  -0.158148
 H              4.36515    3.28403    4.36421           -0.028978  0.0767982 -0.0362581
 H            0.0176239    4.37821    4.37888          -0.0920614  0.0612525  0.0662422
 H              1.11013    4.36745    4.36456           -0.116339 -0.0161989 -0.0383462
 H              2.19708     4.3509    4.35423          -0.0174986  0.0831273  0.0967259
 H              3.28446    4.36697    4.36439           0.0801272 -0.0167971 -0.0366183
 H              4.37768    4.37731    4.37788           0.0594568  0.0568093  0.0609466
