125

 H             0.757942  -0.640462   0.572949              -0.1438   -0.198865 -0.00255292
 H              1.34785   0.284453   0.462478          -0.0173203 -0.0148062  -0.219998
 H              2.23881  -0.594098   0.659653             0.118514   -0.246741 -0.00222651
 H              3.05076   0.277296   0.463717            0.159198    0.11322  0.0513488
 H              3.62615  -0.661482   0.603584            0.162327  0.0505269   0.290881
 H                0.464   0.828589   0.121361            -0.195365   0.0740437 -0.00862325
 H              1.31371    1.39812   0.477108           -0.153413  -0.208464  0.0623364
 H              2.19013   0.859427   0.122197          -0.00325879  -0.0562714  -0.0355654
 H              3.09342     1.3916   0.452318            -0.30227  0.0202539   0.240418
 H              3.97805   0.795452   0.124857           -0.227809   0.179712  -0.145279
 H             0.409258    1.95033   0.146037            0.273351  -0.160303  0.0392378
 H               1.3046    2.50596   0.475286           0.0130188  0.0602135  0.0994652
 H              2.21896    1.96929    0.14236            0.0349855  -0.0977106 -0.00103471
 H              3.10315    2.49852   0.478509          -0.0476567  0.0731839 -0.0661416
 H              4.02031    1.92189   0.159661           -0.154881 0.00516825   0.152554
 H              0.38668    3.06324    0.19261          -0.0252379   0.135842   0.120015
 H              1.30677    3.60572   0.515028          -0.0612308    0.15459 -0.0593868
 H              2.19431    3.06984   0.178393           0.0112056   0.109057 -0.0481501
 H              3.08594    3.60108   0.494655           0.0981876 -0.0028515   0.196423
 H              4.00703    3.06816   0.177563           0.0425397  -0.191651   0.184473
 H             0.424119     4.2098   0.230388            0.177537 -0.0309117  0.0258494
 H              1.33484    4.74803   0.556469            0.181366   0.142797  -0.119775
 H              2.19072    4.18186   0.217173           0.0787311 -0.0785701  -0.020724
 H              3.06685    4.74131   0.552894          0.00628614   0.299995  -0.193954
 H              3.95357    4.22408   0.186121           -0.130549  -0.298928 -0.0798036
 H             0.433335   0.282192     1.0835             0.18918  0.0505972  0.0897653
 H              1.37663  -0.253633    1.41649           -0.116605 0.00165447 -0.0466432
 H              2.19852   0.357152      1.113           -0.159038   0.128992  0.0189802
 H              3.03523  -0.258718    1.42019          -0.0944084  -0.125215  0.0780242
 H              3.96912   0.272968    1.06713           0.0403229   0.168083  -0.263085
 H             0.423141    1.38642    1.10117          -0.0290177  -0.251799  0.0706891
 H              1.29738    0.85589    1.41448           -0.256776   0.092673  0.0336946
 H                2.217    1.42377     1.0907          -0.0300944   0.156922  0.0316014
 H              3.09638   0.853643    1.41455           -0.110325   0.176027 -0.0744507
 H              4.00517    1.38978    1.10188           0.0761966   0.108088 -0.0337487
 H             0.390176    2.49033    1.13511          -0.0515547   0.093555  0.0117359
 H              1.30795     1.9411    1.41862           0.0997591 -0.0516806   -0.22411
 H              2.19449    2.51757    1.11866            -0.24188   0.157543  0.0458105
 H               3.1054     1.9417    1.43311            0.114305 -0.0442402   0.312887
 H              3.99694    2.49696     1.1166           -0.221755  0.0753243   0.121753
 H             0.391525    3.60593    1.15105           -0.035106  -0.053368 -0.0843689
 H              1.28437    3.01523     1.4407          -0.0338426 -0.0789267 -0.0157214
 H              2.18657    3.59084    1.16011             0.0924553 -0.000990858    -0.244875
 H              3.11575    3.03658    1.44928           -0.161733  -0.123562  0.0411732
 H              4.00096    3.62026    1.15061            0.153343   0.195152  -0.102851
 H             0.437355    4.75808    1.21468            0.194464 -0.0427019 -0.0322581
 H              1.30139    4.12782    1.47964            0.255088  0.0898811 -0.0671627
 H              2.18469    4.73453    1.22755             0.235016 -0.00241888  -0.0183989
 H              3.09909    4.15917    1.46324             0.15311  0.0457414   0.192722
 H              3.97563    4.77215    1.19252          0.00826173 -0.0996925  -0.348901
 H             0.463389   -0.29876    2.01896          -0.0468612  -0.161566 -0.0306186
 H              1.31764   0.314381    2.34991           -0.142626   0.349931  0.0328208
 H              2.20314  -0.291088    2.11033           0.0544835  0.0300662  -0.017364
 H              3.07052   0.311576    2.35897            0.162709  -0.118918 -0.0206972
 H              3.97739   -0.27098    2.00875             0.24278  -0.107929 -0.0495746
 H             0.395509    0.84481    2.05862           0.0921761  0.0113033 0.00149779
 H              1.29747    1.40218    2.36254            -0.239857    0.130987 -0.00724386
 H              2.19202   0.869985    2.05429           0.0995303  0.0461815   0.106882
 H              3.08697    1.39584    2.37887            0.169932 -0.0962565 -0.0604408
 H              3.97182   0.826384    2.05071           -0.078031   0.165712  -0.233847
 H             0.416126    1.94271    2.05311          0.00665288   0.207162   0.185397
 H              1.30156    2.48601    2.39624           0.0432985   0.141909  -0.123275
 H              2.19906    1.95016    2.05937           0.0532782 -0.0624738   0.132803
 H               3.1048    2.48935    2.39459           -0.181019    0.24203   0.106198
 H              4.01839    1.94668    2.06461           0.0975136   0.173947 -0.0164098
 H             0.391202    3.03841    2.09014          -0.000522581     0.202729    0.0193593
 H              1.30391    3.58237    2.39336            0.169295  -0.214972  -0.113739
 H              2.19319    3.01901    2.07634            0.043626  0.0384946  0.0765413
 H              3.10823    3.57826    2.39545           -0.0927475   0.0580447 -0.00359131
 H              4.03068    3.03267     2.0792           -0.224915  -0.126572    0.11518
 H             0.397819    4.14289    2.11502            0.104583 -0.0297538   0.290626
 H              1.32112    4.71879    2.38407            0.164656  -0.124879   -0.20192
 H                2.207    4.12136    2.11502          -0.0784804   -0.36971 -0.0872743
 H              3.07136    4.72388    2.38654           0.0286014 -0.0764377  -0.119315
 H              3.99719    4.15154    2.12201           -0.130758  0.0495108 0.00335619
 H             0.406395   0.259908    2.97021            0.111935  -0.159259   0.127503
 H              1.31457  -0.294697    3.24403            0.043118 -0.0146289 -0.0934034
 H              2.20121   0.317047    2.98932           0.0156827  -0.171297  0.0657245
 H              3.09307  -0.288136    3.26517          -0.0910802 -0.0814799   0.126801
 H              3.99706   0.284178    2.99082           -0.125541   0.206084  -0.150823
 H             0.403857    1.38099    2.99386           -0.166308   0.114131   0.126228
 H               1.2822   0.848573    3.30636            0.125312  -0.174254  0.0352978
 H              2.20284    1.40008    3.00946           0.0223244   -0.14949 -0.0309826
 H              3.10021   0.828654    3.30619          -0.0822976  0.0927974   -0.10379
 H              4.00267    1.38843    3.00607            0.286547    0.17461  0.0450557
 H             0.415563    2.47583    3.04074           -0.093165   0.114966   0.108923
 H              1.31304    1.93383    3.33274           -0.136046  -0.256189  0.0225514
 H               2.1963    2.47638    3.02012              0.05612 -0.00836551   -0.148274
 H              3.09248    1.92449    3.33779             0.083699 -0.00682517  -0.0657042
 H              3.99347    2.48456    3.02291           -0.055871  0.0845496   0.238578
 H             0.422934    3.57665    3.04783           0.0643983  -0.118317   0.071579
 H              1.32851    3.00458    3.34764           0.0306971 -0.0683585  -0.246337
 H              2.20672    3.56621     3.0222           -0.172448   0.148179  0.0971765
 H              3.08985    3.01759    3.34648             0.010002   0.0505709 -0.00721086
 H              4.00078     3.5804    3.05225           0.0403257 0.00343191   0.132025
 H             0.514395    4.73298    3.07838            0.240972   0.139874 -0.0367201
 H              1.32795     4.0803      3.337          -0.0336397  0.0955166  -0.101939
 H              2.19545    4.69921    3.05744          -0.0495218  -0.125764 -0.0255529
 H              3.07954     4.0922    3.31849          -0.0821351  -0.218776 -0.0159793
 H              3.91317    4.74313    3.05975           -0.118586   0.166029  0.0203451
 H             0.394379  -0.317776    3.90243            0.0607947 -0.00941439  -0.0941123
 H              1.29117   0.257408    4.22439            0.250771  -0.105766  -0.122989
 H              2.18138  -0.288448    3.90812           0.0793574 -0.0499719  -0.219034
 H              3.06644   0.256857    4.24176           0.0294884  -0.273434  0.0174613
 H              3.94991  -0.336794    3.92133             0.0262212 -0.000529684    0.0930146
 H             0.381018   0.812356    3.92141          -0.0468782 0.00509396  0.0314451
 H              1.25672      1.348    4.27903          -0.0638451   0.139429  -0.136394
 H              2.18154   0.799699    3.95265           0.0470736  -0.183586  0.0289148
 H              3.08855    1.34584    4.28001            0.124007 -0.0980274  -0.113173
 H              3.98172   0.808436    3.95268          -0.0517729  0.0193982   0.151374
 H             0.364374    1.92123    3.97238           -0.134747  -0.042461  0.0666217
 H              1.31491    2.44362    4.33162            0.181511 -0.0308102   0.036883
 H              2.19948    1.90832    3.98269          -0.0411554   0.030348  0.0576057
 H              3.10891    2.47312    4.27751          -0.00824638  -0.0682595    0.215458
 H              3.99039    1.92925    3.96717          -0.0917601 -0.0272424 0.00401631
 H             0.444191    3.04544    3.99872           -0.287611   0.125619 -0.0247456
 H              1.34003    3.57866    4.32054           0.0687978 -0.0935992  0.0777069
 H              2.19965     3.0119    3.96852            0.0130339   -0.161262 -0.00330089
 H              3.07468    3.59149    4.29502            -0.147073    0.263843 0.000857307
 H               3.9857    3.03723    3.99698             0.110032 -0.00153751   -0.015974
 H             0.478582    4.16681    4.01219           -0.297498   0.147454  -0.160084
 H              1.39503      4.961    3.91555          -0.0772769  0.0512171    0.23127
 H              2.20521    4.13948    3.98946           -0.194281  -0.120985  0.0408086
 H              2.93415    4.98886    3.88094            0.182652  -0.272614 -0.0715114
 H              3.96806    4.16052    3.98873           0.0627898  0.0626558  -0.220588
