125

 H             0.841096  -0.637553   0.528797           0.0168972  -0.151161   -0.15855
 H              1.36923   0.315588   0.466055          -0.0748702  0.0622258  -0.199343
 H              2.10173  -0.559322   0.596919            0.133203  -0.137008   0.195693
 H              3.08306   0.310371   0.464981            0.131056 -0.0988912  -0.137543
 H              3.66491  -0.612674   0.524015           -0.265574  0.0890683   0.134959
 H             0.456848   0.840843   0.126006            0.033914  -0.201138 -0.0706346
 H              1.30413    1.41904   0.495275          -0.0695765   0.146779    0.14392
 H              2.20751   0.888427   0.144957            0.241767  0.0708969  -0.261275
 H               3.0926    1.39937   0.483461            0.266901 -0.0630279   0.114484
 H               4.0062   0.807358   0.138792           -0.171642  -0.222822  0.0817471
 H             0.394368    1.94213    0.15518            0.089893  0.0445014 -0.0114859
 H                 1.29    2.50893   0.493392           0.0337662  0.0667246   0.066862
 H              2.16944    1.96924   0.136729            0.171335  0.0889104  -0.082968
 H              3.07743    2.50018   0.475394           -0.136499  -0.221231 -0.0662737
 H              3.98179    1.95136   0.149513           -0.154149  -0.101934  -0.036981
 H             0.385978    3.05377   0.193075          -0.0540872 -0.0572223  -0.126291
 H              1.28673    3.62669   0.527363            -0.135437   0.0239346 -0.00588002
 H              2.19083    3.07074   0.169073           -0.112213   0.306602   0.132843
 H              3.09322     3.6109   0.508068            0.019032  0.0538883  0.0897057
 H              3.97095    3.04621   0.153629          -0.0365768  0.0117153  0.0940827
 H             0.426578    4.19681   0.202389          -0.00215633   0.0301656  -0.0982972
 H              1.32301    4.75813    0.55212           0.0750625  -0.149029   0.115496
 H              2.19687    4.19231   0.213318              0.0956 -0.0121653   0.197536
 H              3.09288    4.72433   0.552105           0.0936766  -0.234732  0.0111408
 H              3.98715    4.17187    0.20722           0.0894309    0.27481  -0.171928
 H             0.449041   0.275591    1.07576           0.0477971   0.298035  -0.136532
 H              1.34605  -0.252237     1.4126           0.0547821  -0.118881  -0.188839
 H              2.20527   0.349374    1.13582            0.140749   0.203662   0.312224
 H              3.05364  -0.274592    1.40072          -0.0411062 -0.0594618  0.0983372
 H              3.97186   0.285586    1.11059            0.0133592   -0.185188 -0.00182047
 H             0.396007    1.40936    1.11461            0.113728  -0.167208   0.154468
 H              1.30201   0.867134    1.41346          -0.0919084  0.0747342 -0.0754482
 H              2.20041    1.43138    1.11189           0.0127014   -0.18755  0.0466213
 H                3.107   0.854428    1.43176          -0.0330662  0.0727278  0.0092222
 H              4.01584    1.38538    1.09288             0.16838    0.14931 -0.0185309
 H             0.404313    2.49386    1.12316           0.0167947  0.0445041  -0.280092
 H              1.29917    1.96134    1.42805             0.17837 -0.0742746   0.129982
 H              2.18363    2.50796    1.11522           -0.124018  -0.112181   0.270121
 H              3.10114    1.94689    1.44709          -0.00973679  -0.0562649    0.179206
 H              3.98631    2.50068    1.10173              0.168626 -0.000194847   0.00585371
 H             0.390057    3.60806     1.1568            -0.18916  0.0700789 -0.0424857
 H              1.28251    3.04454     1.4489            0.103219  -0.149728   0.197242
 H               2.1978    3.60239    1.14584           -0.246352    -0.2084    0.24096
 H              3.10868     3.0392    1.44809           -0.109732  0.0441837 -0.0629872
 H              3.99855    3.60182    1.14301           -0.214457  -0.173296  0.0887342
 H             0.419049     4.7565    1.20248           0.0312721  -0.113917 0.00288657
 H              1.31196    4.12912    1.47334            0.157832  -0.165731  0.0371139
 H              2.22863    4.72619    1.21544          -0.0487355   0.108827 -0.0448134
 H              3.10447    4.11603    1.47026           0.0270551  0.0804743    -0.1275
 H              3.97341    4.75039    1.20945           -0.400571    0.10175 -0.0754549
 H             0.416577  -0.268767     2.0397           -0.116109   0.232442  -0.115332
 H              1.30622   0.313817     2.3542           0.0774547    0.26929 -0.0937338
 H              2.17117  -0.293593    2.06842           -0.109071   0.198701  0.0381783
 H              3.07544    0.30527    2.34962          -0.00710561  -0.0138444   0.0743069
 H              3.96804  -0.285558    2.05735           -0.148455 -0.0208999 -0.0779717
 H             0.393083   0.844675    2.04554          -0.0541566  0.0303976  0.0525792
 H              1.30528    1.39556    2.36835          -0.0579679 -0.0337483   0.229877
 H              2.20083   0.869487    2.06025          -0.0163886 -0.0310766  0.0579804
 H              3.10039    1.39688    2.40327           0.0133969  0.0720437  0.0659801
 H              3.99182   0.836825    2.06963            0.0172952 -0.00346889  -0.0359467
 H             0.389089    1.95642    2.07083            0.122631  0.0944802   0.151775
 H              1.29367    2.47917    2.37919          -0.0345157 -0.0587937  0.0585992
 H               2.2044    1.94658    2.07097            0.189471 -0.0392095  0.0452796
 H              3.11022    2.46573    2.39296            0.011458  -0.110692  -0.119678
 H                4.008    1.92943    2.03927          -0.0768794   0.206986 0.00608846
 H              0.38285    3.03887    2.09589           -0.188473  -0.201855  -0.171029
 H              1.30818    3.57152    2.39484            -0.228568  -0.0777843 -0.00791037
 H              2.18695    3.01291    2.08245          -0.0194253  0.0135618   0.171277
 H              3.09651    3.57077    2.39462            0.200576  0.0862447  -0.204473
 H              4.00692     3.0423    2.09665           -0.143906  0.0687267  0.0742082
 H             0.405036     4.1319    2.11291            0.347148  0.0446374   0.360675
 H              1.32027    4.69766    2.41263            0.030645   0.262518  0.0664772
 H              2.18701    4.11662    2.11458          0.00894327 -0.0762196  0.0104258
 H              3.07085    4.70709    2.38773            0.162976   0.209814   0.252496
 H               3.9953    4.13127    2.13992           -0.067406  -0.135917  -0.354501
 H             0.407844   0.287315    2.98643            0.060591  0.0737744 -0.0519537
 H              1.31269  -0.302327    3.24786           0.0463648  0.0938488  -0.182521
 H              2.20423   0.277977    2.98859           0.0737195   0.219641   0.305687
 H              3.08244  -0.313808    3.23776           0.0195206  0.0052319  -0.178188
 H              4.00788   0.285693    3.00168           0.0383586  0.0392278 -0.0737624
 H             0.414029    1.37821    2.98687           -0.0647889   0.0198366 -0.00690923
 H              1.29237   0.822121     3.3026          -0.0879477  -0.102012 -0.0559404
 H              2.19406    1.36911    3.01541           0.0153626 -0.0938082  -0.246182
 H              3.11355   0.819433    3.32213          -0.0919355 -0.0714962 -0.0698211
 H              3.99787    1.38638    3.02374             0.14966  0.0532595   0.185677
 H             0.408593    2.49209    3.02469          -0.0478744   0.101423   0.166726
 H               1.3162    1.91908    3.33319           0.0517478  -0.159139    0.15782
 H              2.20997    2.47357    3.02185          -0.0648995 -0.0842827 -0.0475082
 H              3.09269    1.91436    3.34621          -0.0481558    0.12158  -0.182832
 H              4.00201    2.47522    3.03554           0.0525349  -0.146365   0.178068
 H             0.411872    3.57794    3.04829          -0.0840015  0.0713495  -0.239897
 H              1.31631    3.00799    3.35617           0.0935637   0.016054 -0.0285754
 H              2.21821    3.56295    3.04423          -0.0578093 -0.0429274  -0.214556
 H              3.10524    3.00525    3.34348              -0.178   -0.11444  0.0829778
 H               4.0012    3.59129    3.05094           0.0586132  0.0182809  0.0381857
 H              0.44512    4.70095     3.0687          0.00107033  -0.230835  -0.086023
 H              1.32603    4.09141    3.31377            0.428109   0.141305  -0.148517
 H              2.20647    4.69891      3.044           0.0721605 0.00423149 -0.0536149
 H              3.08446    4.08287    3.31758          -0.0312409  0.0710609  -0.119917
 H              3.91125     4.7443    3.07827           -0.374295   0.107795  0.0129422
 H             0.389067  -0.296972    3.91778           0.0554245  -0.108965  -0.217605
 H              1.30088   0.247374    4.22622           -0.012021  0.0505156  0.0837524
 H              2.20279  -0.330756    3.91023          -0.00760226  -0.0432202    0.135349
 H              3.07451   0.230745      4.229           0.0961654   -0.18219 -0.0289569
 H              3.97376  -0.330643    3.89445          -0.0628032  -0.147825  -0.109853
 H             0.401995   0.812646    3.94872          -0.0151045   0.283228   0.116189
 H              1.30627    1.35381    4.28461           0.0681143  0.0379104    0.16326
 H              2.18749   0.799985    3.95036            0.156323  0.0202935  -0.233542
 H               3.1074    1.35547    4.28859           -0.077282  -0.196398   0.151137
 H              3.99714   0.811437    3.97781           -0.179587   0.100011 0.00925616
 H             0.420887    1.90731    3.96823           -0.255362 -0.0227905  0.0406269
 H              1.31862    2.44252    4.31268            0.131159   -0.15283  -0.123154
 H              2.20595    1.91377    3.95942           -0.123328  -0.130216  -0.073295
 H               3.0995    2.46295    4.31331            0.183413  0.0951937  -0.101024
 H              3.98783    1.93962    4.00143           0.0274895  0.0774522   0.237069
 H             0.410404    3.01431    4.00116           -0.078289   0.151758  -0.145893
 H              1.31737    3.56991    4.31325            0.112763  0.0339974  -0.149934
 H              2.19879    2.99748    3.98091            0.155609  -0.100343 -0.0443452
 H               3.0776    3.56108    4.27962          -0.00775393  -0.0530058   -0.052034
 H              4.01611    3.04892    3.99955            -0.12548   0.214641  -0.260292
 H             0.483222      4.169      4.001            0.204867  0.0320192   0.263601
 H              1.38134    5.06331    3.75845           0.0274325  -0.039783  0.0945841
 H              2.20757    4.15182    3.99522           -0.157354  -0.141597  0.0456221
 H              3.03277    5.01643    3.83341          -0.0127137  0.0293278 -0.0881534
 H              3.89272    4.21593    4.02605           -0.0526495 -0.00198723  -0.0588453
