125

 H             0.851219  -0.652558   0.539426           0.0594878  0.0931862  -0.139317
 H              1.32725   0.327256   0.449136           0.0101938   0.204833   0.131128
 H              2.08006  -0.548502   0.602219           0.0557808  0.0340643  -0.277036
 H              3.05315   0.290126   0.450572            0.183621  -0.234831  -0.108154
 H              3.63329   -0.64048   0.516862           -0.153044  0.0100978  0.0907139
 H             0.400637   0.860648   0.142654            0.131574  0.0786702 -0.0988211
 H              1.32655    1.42528   0.485252          -0.0818994 -0.0584125   0.196731
 H              2.21082   0.868978   0.170814           -0.184177  -0.297236  0.0401001
 H              3.11901    1.41153   0.477531           -0.132802 -0.0189219   0.256759
 H               3.9858   0.837899    0.14291          -0.0716773   0.274876  0.0845436
 H             0.403228    1.97904   0.153005            0.313613   0.154062 0.00972751
 H              1.31025    2.50542   0.497244          0.00185599 -0.0991749  -0.107541
 H              2.21819    1.97686    0.16006           0.0974296   0.065924 -0.0132314
 H              3.10396    2.52863   0.487115            0.285824   -0.16807 -0.0994628
 H              4.01118    1.95263   0.141632           0.0421688  0.0659114 -0.0104598
 H             0.424147    3.10705   0.170789          0.00787868  0.0825747  0.0694535
 H              1.30772    3.60925   0.492007          0.00521649  -0.107777 -0.0619682
 H              2.22706    3.07081   0.164519           -0.057573  0.0469703 -0.0556161
 H                3.085    3.61706   0.506665           0.0359073  0.0933405  0.0313459
 H              3.99998    3.09465   0.173232          -0.0826727 -0.0655899    0.17435
 H               0.3886    4.20403   0.233739          -0.0129123 -0.0282703   0.137772
 H              1.32416    4.70458   0.542461           0.0137563 -0.0676862   -0.26473
 H              2.20834     4.1711   0.174988           0.0147101 -0.0896563  0.0915269
 H              3.08774    4.71652   0.549063            -0.292984   0.0318281 -0.00202738
 H               3.9711     4.2079   0.205528           -0.182728 -0.0775425 -0.0263704
 H             0.414931   0.267848    1.09358          -0.0354287  0.0972289  0.0180409
 H               1.3356  -0.242428    1.40815           -0.229565   0.046056   0.117284
 H               2.2029   0.339853    1.14481          -0.0188143   0.113028  -0.235162
 H              3.05633  -0.303365    1.40937            -0.14738  0.0546383  0.0182751
 H               3.9483   0.267844    1.09336            0.0184293 -0.00652454   0.0961008
 H              0.40599    1.40456    1.11051           0.0140538 -0.0459521  -0.126041
 H              1.29598   0.851579    1.40856            -0.11627 -0.0476278 -0.0455566
 H              2.21694    1.42614    1.12771          -0.0863305       0.15 -0.0954336
 H               3.1079   0.860077    1.40688          0.00691016  -0.410926 0.00771536
 H              4.02824    1.39602    1.10764            0.079808 -0.0288404 -0.0309374
 H             0.403532    2.52078    1.10621            0.116908  0.0249292 -0.0167727
 H              1.31028    1.94507    1.44098            0.120218  0.0660021  0.0636738
 H              2.21474    2.49923    1.12803           -0.045404  0.0104308  -0.192311
 H              3.11566    1.95722    1.43921            0.137064 -0.0107499  0.0982123
 H               4.0109    2.49689    1.12808           0.0620378  -0.103288  -0.102326
 H             0.391087    3.61784    1.14269           0.0308538 -0.0912974 -0.0756189
 H              1.30338    3.03678    1.44729            0.189123  -0.181523    0.16263
 H              2.20692    3.59262    1.13718            0.162964   0.107709   -0.02774
 H              3.10666    3.04216    1.44523            0.159412 -0.0333347   0.233217
 H              4.03293    3.60243    1.16457           0.0713604 -0.0846963   0.390579
 H             0.413574    4.73252    1.20146          0.00278931  -0.241669  0.0344184
 H              1.29821     4.1269    1.46436          0.00492159   0.104444  -0.178839
 H               2.2107    4.71429    1.22035          -0.0895084  0.0311973 0.00995679
 H              3.09437    4.12372    1.47749           -0.248956 -0.0602972  0.0687503
 H              3.98171    4.72792    1.18957           -0.118261  -0.106179 0.00846532
 H             0.478289   -0.30356     2.0697            0.151725 -0.0751509   0.113558
 H              1.30801   0.315795    2.36149          -0.0401345  0.0466962   0.233246
 H              2.19337  -0.286521    2.08929           0.0370664 -0.0197691  0.0186078
 H              3.10007   0.279439    2.33914          -0.0718037 -0.0323338 -0.0329848
 H              3.96799  -0.324831    2.02689            -0.23247   0.111528   0.167341
 H             0.380508   0.843917    2.04443           -0.115244   0.137638   0.147394
 H              1.29196    1.38605    2.38527           0.0500495  -0.215865   0.068873
 H              2.21011   0.852808    2.05789             -0.28555 -0.00750255   0.0038837
 H              3.11831    1.38969    2.36656           -0.188743 -0.0629921  -0.135206
 H              4.00496   0.827587    2.04564          -0.0679211  -0.144225   0.126362
 H             0.415514    1.94373    2.04383             0.0245814    -0.195868 -0.000124104
 H              1.31369    2.48331    2.39733            0.229802 -0.0483178    0.13652
 H              2.19444    1.93803    2.08245          -0.0590489  -0.121639  0.0502346
 H              3.08133    2.47191    2.39259            0.198681 0.00298072  0.0631756
 H               4.0116    1.91812    2.07083          -0.0361408   0.099933  -0.097651
 H              0.41323    3.06318    2.06982          -0.0690101   0.148821  -0.117474
 H              1.28672    3.57104    2.40962           0.0351148  -0.164441 0.00018355
 H              2.19991    3.02036    2.06608           -0.126363  0.0853603   0.276622
 H              3.08698    3.55573    2.40371           -0.224913  -0.110657   0.067238
 H              3.99883    3.04181    2.08312          -0.0505572  -0.326411  -0.152453
 H             0.384145    4.16332    2.12082          -0.0536328   0.111385 -0.0746216
 H              1.31857    4.68484    2.38829           0.0301774  0.0392842   0.118559
 H              2.17594    4.10536    2.10601           0.0171471   0.245853 -0.0703803
 H               3.0482    4.71157    2.38186          0.00378224  0.0562309   -0.12792
 H              3.98215    4.15608    2.12659           0.0267474   0.267945 -0.0158299
 H             0.394325   0.276265    2.98015             0.0573834     0.113825 -8.50547e-05
 H              1.30581  -0.300579    3.22546            0.197968  -0.133841  0.0251772
 H              2.20062   0.300672    2.98815           0.0287978 -0.0102742  -0.238793
 H              3.10999  -0.326389     3.2504           0.0546002  0.0472705   0.119914
 H              3.99235   0.273502    2.99593           -0.172822   0.121372  -0.293614
 H             0.397247      1.402     3.0069            0.312641   0.229548  -0.096989
 H              1.29958    0.81736    3.32577            0.118929  0.0138658  -0.191984
 H              2.19702    1.39236     2.9947           0.0859671   0.212053   0.230678
 H               3.0992   0.833635    3.30117             -0.1903   0.172312 -0.0143798
 H              3.99537      1.379    3.02475           0.0937049  0.0163442  -0.086557
 H             0.394531    2.48795    3.02929            0.161184   0.137255  0.0839165
 H              1.29558    1.91377    3.34135           -0.105283 -0.0129193 -0.0521768
 H               2.1861    2.45947    3.03083            0.107464  -0.226256 -0.0765005
 H               3.0905    1.92504    3.33358           0.0650426 -0.0321432  0.0320126
 H              4.01328    2.47167    3.03814           0.0757857  0.0741628  0.0116802
 H             0.409143     3.5992    3.05516          -0.0584141  0.0904345 -0.0105706
 H              1.29149    3.02265    3.35493          0.00798449   0.114092  -0.021435
 H              2.18888    3.55054      3.022            0.063106 -0.0721616 -0.0470569
 H              3.07358    3.00322    3.34945           -0.111938  -0.106065  -0.076922
 H              3.97619    3.58166    3.03703            0.100487 -0.0182652  0.0965303
 H             0.457347    4.72774    3.07248           -0.117107 -0.0322291  -0.173693
 H               1.3124    4.09484    3.33175           -0.225984   0.168054 -0.0254891
 H               2.1868    4.70799    3.05444           0.0682987  0.0335803 -0.0729599
 H              3.06816    4.09533    3.32456            0.158604   0.102327   0.170463
 H              3.93203    4.70451    3.05553           0.0678614  0.0143944  -0.124817
 H             0.428505  -0.317074    3.89597            0.169573  -0.146853  -0.144403
 H              1.30722   0.258473    4.25442          -0.0594149  -0.134428  0.0343555
 H              2.19411  -0.296959    3.90581           0.0584478   0.224879 -0.0850937
 H               3.0889   0.242449    4.23794            0.155482  -0.173049   0.024453
 H              3.98279  -0.295358    3.91033            0.159035 -0.0658086  -0.310952
 H             0.378562   0.809928    3.93667            0.232745  0.0261708 -0.0873863
 H              1.29194     1.3574    4.29719           0.0992671  0.0732594 -0.0650073
 H              2.20125   0.826667    3.96311           -0.184666  -0.159795   0.124477
 H              3.11894    1.34219    4.29688          -0.0409952 -0.0319021 -0.0332941
 H              4.01197   0.803663    3.96557           -0.166708   0.211037  0.0495363
 H             0.392393    1.90899    3.96898            0.201924  -0.154897  0.0253675
 H              1.31144    2.45823     4.2909           0.0269519   0.127823  0.0439284
 H               2.2085    1.89284    3.98123           -0.267614 -0.0494545  0.0983299
 H              3.10379    2.45494    4.29783          -0.0022621 -0.0315688  0.0396402
 H              4.02455     1.9031    3.97962           -0.263983 -0.0588111  -0.141745
 H             0.405951    3.04375    4.01021           0.0580805  -0.108394   0.217313
 H              1.32982    3.58766    4.32546           -0.105998  -0.112221  -0.157859
 H              2.19765    3.01202    3.98673           -0.153868 -0.0518185  -0.046899
 H              3.07049    3.57161    4.30682          -0.0511554   0.142303  0.0439872
 H              3.99244    3.03072     3.9924           0.0948745 -0.0733793  0.0520679
 H             0.437863    4.16045    4.04068            0.170585   0.072923   0.157507
 H              1.38479    4.98498     3.8725           0.0819959   0.168466  0.0581277
 H              2.20304    4.15927    3.98727          -0.0813938   0.264078 -0.0738878
 H              2.98822    5.07503     3.7417          -0.0278169 -0.0110853  0.0464143
 H              3.94635    4.19269    4.02788           -0.177874 -0.0686245 -0.0524742
