125

 H             0.838472  -0.648282   0.524373           -0.109981  0.0649032   0.242308
 H              1.34108   0.297441   0.449197           -0.270087 0.00308205   0.281596
 H              2.16399   -0.58589   0.655194          -0.0391908  0.0606883  -0.112319
 H              3.03551   0.269661   0.451623          -0.0642088  -0.285804 -0.0338192
 H               3.6499  -0.666262   0.602144            0.161597  -0.012439  -0.108064
 H             0.420802   0.818058   0.141159            0.182819  0.0938331 -0.0348757
 H              1.31949    1.39726   0.460997          -0.0905724  0.0451197 -0.0815197
 H              2.21689   0.875557   0.106131          -0.0963372   0.194521   0.122338
 H              3.08628    1.39165   0.466169            0.124379   0.108061 -0.0199987
 H              3.95153   0.824109     0.1167           -0.256378    0.20741  0.0178074
 H             0.395588    1.95697   0.147361          0.00810615  0.0821262  0.0329993
 H              1.31349     2.5064   0.470994           0.0641594 -0.0271884   0.117523
 H              2.20713    1.95878   0.132408           -0.220402   0.106575  0.0306212
 H              3.09105    2.51521   0.486423             0.20914  -0.226872 -0.0682623
 H               4.0134    1.94828   0.160682          -0.0123976   0.104171  0.0739411
 H             0.418015    3.07773   0.157459          -0.0330383   0.108942    -0.1251
 H              1.31145     3.6074   0.504849            0.248425  0.0882716  0.0118631
 H              2.20574     3.0728   0.181132            -0.11621  0.0790169  -0.193438
 H              3.10153     3.6346   0.502945          -0.0559178  0.0649122  0.0252092
 H              4.01891    3.08149    0.21008           -0.035349  -0.316424 -0.0127518
 H             0.419573    4.18254   0.196765            0.029656 -0.0215367   0.028429
 H              1.29098    4.74305   0.511962             0.21358   0.027215 -0.0702668
 H              2.19236    4.17451   0.204894          -0.0984596 -0.0300352  0.0573909
 H              3.10779    4.75002   0.574701           -0.122665  0.0491022 -0.0911163
 H              3.99824    4.21301   0.218176            0.0289911    0.063887 -0.00450791
 H             0.423197    0.26012    1.09315            0.112073  -0.200412 -0.0735632
 H              1.34288  -0.249335    1.42206           -0.101572   0.169283    0.13108
 H              2.18029   0.374228    1.09394            0.229031   -0.20536  -0.190627
 H              3.01451   -0.25771    1.38268            0.467752  -0.210819 0.00176346
 H              3.91706   0.287884    1.09607           -0.164331 0.00194389  0.0302997
 H             0.415267    1.39106    1.08596            0.114028 -0.0409704 -0.0187024
 H              1.29481   0.861784    1.40548          -0.0256556   0.151706  0.0398516
 H              2.19352    1.43981    1.10845          -0.0674014   -0.26234  -0.202405
 H              3.06737   0.875141    1.41586            0.092568   0.264446   0.092141
 H              3.99017    1.39211     1.1268            0.258994  -0.274776  0.0783836
 H             0.403842    2.49657    1.10399            0.100795 -0.0167149   0.031123
 H              1.29608    1.94724    1.41257            0.193983 -0.0261465    0.32095
 H              2.18607    2.50606    1.11342           -0.149064   0.248531    -0.0451
 H              3.09241    1.96756    1.42789           0.0481065 0.00484412 -0.0471263
 H              4.00857     2.5127    1.13757          -0.0205792  -0.250656  0.0470439
 H             0.400682    3.62191    1.13052          -0.0378725  -0.111277  0.0409721
 H              1.30524    3.03927    1.42324          -0.000530787    0.0289991    -0.030797
 H              2.19865      3.599    1.14078          -0.0247361 0.00420396   0.164779
 H              3.10131    3.03793    1.45422            0.121316 -0.0374247 -0.0568125
 H              3.99992    3.62456    1.16436           0.0900185   0.289608 -0.0627358
 H             0.430252    4.75427    1.19744             0.212703   -0.122757 -0.00370424
 H              1.29348    4.13815    1.45327           -0.135549  -0.135835  0.0680996
 H               2.1843    4.72051    1.18673             0.183864 -0.00258234  -0.0351141
 H              3.06857    4.13787    1.46768           0.0150879 0.00338436   0.159263
 H              3.94754    4.74693     1.2256           -0.174759  0.0201818   0.133408
 H             0.443546  -0.292576     2.0564            0.202549  -0.269569  0.0742712
 H              1.29805   0.322853    2.35172             0.0185136 -0.000792044    0.0241716
 H              2.18637  -0.283595     2.0835            0.040959  0.0192849  -0.199196
 H              3.06934   0.301393    2.34154           0.0160165   0.130023   0.229255
 H              3.92754  -0.289856     2.0471          -0.00724679  -0.0552272  -0.0691132
 H             0.379118   0.839554    2.04719          -0.0177367 -0.0513711 -0.0488398
 H              1.30399    1.39569    2.37328           -0.173438   0.131874 -0.0170923
 H              2.17818   0.849263    2.06274           0.0806965  -0.217577  -0.161172
 H              3.09298    1.38574    2.38459           0.0663641   0.122579  -0.085504
 H              3.96286   0.822621    2.07129           0.0113087 -0.0548174  -0.107421
 H             0.391502     1.9376    2.05362          -0.0410687   0.226188  0.0102652
 H              1.30556      2.469    2.38008          -0.0258401  0.0509826  0.0872016
 H              2.18966    1.93996    2.06548           -0.163379 -0.0579048  0.0447657
 H              3.09921    2.47526     2.3936          -0.0377441  -0.145435  0.0865245
 H              3.97851    1.94309    2.06603          -0.0355335  -0.108737  0.0910784
 H             0.423626    3.03949    2.06293           0.0689283  0.0852465 -0.0617034
 H              1.30457    3.56655    2.37257           -0.106092  -0.188382   0.186284
 H              2.18993    3.02599    2.06393            0.061338   0.157055  -0.212616
 H               3.0939    3.56891    2.37662           -0.159635   0.101069 -0.0248873
 H              4.00247    3.03093    2.09817           0.0577593 -0.0451177 -0.0865376
 H             0.396076     4.1649    2.10141          -0.0232106  0.0379205  -0.099538
 H              1.31633    4.70734     2.3949           -0.151809  0.0254509  -0.046464
 H              2.18279    4.12239    2.10106           -0.118062 -0.0792804  0.0338095
 H              3.05171    4.71285    2.38592            -0.208929 -0.00544164    0.200747
 H              3.98326    4.14777     2.1394            0.124457  0.0333374  -0.102019
 H             0.410305   0.286255    2.99539            0.178012   0.218144  -0.118833
 H              1.33151  -0.276238    3.26888            -0.19681  0.0600431 -0.0825671
 H              2.19502   0.299886     2.9982           0.0587345   0.114194   0.129269
 H              3.10462  -0.273724    3.27852           0.0190652   0.243575 -0.0964016
 H              4.00618   0.277281    2.99924           -0.130542  -0.139217 -0.0471392
 H             0.398206    1.38891    3.01131           0.0814784 -0.0501021 -0.0756732
 H              1.31783   0.825103    3.33015           -0.137258   0.249048   0.184932
 H              2.19501    1.39305     3.0131           -0.137929  -0.163137 -0.0969789
 H              3.10374   0.829832    3.33233           -0.184568  0.0116429  -0.133052
 H              3.99349    1.38834    3.00935            0.211277  -0.175083  -0.152768
 H             0.424502    2.50107    3.00161            0.241515 -0.0157894  -0.139176
 H              1.31057    1.92701    3.33258             0.115682  -0.0694583 -0.00875372
 H              2.20028    2.46975    3.00514           -0.184573   0.083401   0.125457
 H              3.10287    1.94225    3.33139           0.0985291 -0.0302272  -0.062317
 H              4.00474    2.48465    3.01915           -0.114466 -0.0645953 -0.0914573
 H             0.404727     3.5816    3.03531           -0.142355   0.029535   0.120969
 H              1.32482    3.01191    3.33769          -0.00197165 -0.00735094    0.265441
 H               2.2164    3.56745    3.02554          -0.0617592   0.120819 -0.0332057
 H              3.10141    3.01867    3.32655           0.0906186   0.114058 0.00792517
 H              4.01509    3.59648    3.06635          -0.0545128  -0.108123  -0.138221
 H             0.478924    4.73376    3.10727          0.00448152  -0.126214  -0.218383
 H              1.32957    4.07404     3.3415          -0.0208399   0.047118  -0.110355
 H              2.19105    4.71391    3.06688            -0.14259 -0.0320074 -0.0635847
 H              3.08711    4.09883    3.31141          -0.0419568   0.163134   0.110446
 H              3.91262    4.74734     3.1015            0.192416  -0.178562  0.0479757
 H             0.418944  -0.331264    3.94587            0.105907 -0.0476535  0.0965312
 H              1.31216    0.23519    4.24843           -0.0204329  -0.0412267 0.000641115
 H               2.2159  -0.292158    3.90742           -0.135954 -0.0566267   0.141589
 H              3.10537   0.233181    4.26677            0.102232  -0.122949    0.11717
 H              3.99127  -0.304181    3.91959          0.00231622  0.0781409   0.117447
 H             0.402003   0.819154    3.95059            0.150823   0.160354  -0.190269
 H              1.31489    1.35381    4.26563           -0.095947    0.03211   0.316651
 H              2.20539   0.801166    3.96698          -0.0300879  0.0225618   0.123762
 H              3.10283    1.34173      4.283           -0.332286 -0.0182951 -0.0145493
 H               4.0247   0.817543    3.95232          -0.0788178   0.197138  -0.181927
 H             0.417186    1.92017    3.96044           -0.291845 -0.0188793 -0.0757767
 H              1.31694    2.46766    4.30307           -0.197665  -0.222991  -0.126325
 H              2.19816    1.90749    3.96151            0.247436 -0.0259312  -0.179066
 H              3.08732    2.44611    4.30533            0.103059 0.00525825 -0.0335313
 H              4.01077    1.91105    3.98514             0.22149  0.0831564 -0.0940089
 H             0.441628    3.03634    3.96551          -0.00356879   -0.172953    0.189472
 H              1.34587     3.5582    4.34111           0.0222401   0.121898  -0.158304
 H              2.22144    3.01509    3.95556           -0.220735  0.0654399   0.197318
 H              3.09327    3.56967    4.30364          -0.0705084   -0.16286 -0.0979206
 H              3.99305     3.0172    3.97407           0.0730373  0.0283759  -0.066076
 H             0.488854    4.16226    4.02148           0.0782858 -0.0738463  0.0447871
 H              1.40026    4.93888    3.89072           0.0651459  0.0531795   0.162417
 H              2.19578    4.14043    3.97556            0.223684 -0.0575653 -0.0749626
 H              2.98285    4.94822    3.91232           -0.012865    0.15499  -0.103642
 H              3.93634    4.15478    4.01224           -0.111719 -0.0376242   0.160294
