125

 H             0.755206  -0.620829    0.53355            0.183779  -0.126206  0.0495323
 H              1.34298   0.293379    0.46349           0.0998871   0.114508   0.039818
 H              2.30083  -0.569652   0.622128           -0.171549    0.13811    0.12873
 H               3.0454   0.287625    0.44821           -0.129093 -0.0897028 -0.0943931
 H              3.62314  -0.645376   0.541863          -0.0286194 -0.0022427   0.116578
 H             0.424853   0.834434   0.158198           0.0780199 -0.0274028  0.0247426
 H              1.31772    1.40664   0.480399            0.0296198 -0.00845667   -0.129548
 H              2.19081   0.861909   0.149923            0.139996  0.0388665  0.0104372
 H               3.0791    1.40793   0.473918            0.179664 -0.0137085  -0.223975
 H              3.94275   0.836809  0.0939906          -0.0870921  0.0555519  0.0573008
 H             0.404896    1.95495   0.111211          -0.00270536   -0.212902      0.1504
 H              1.29724    2.49617   0.483744            0.211103 -0.0784889  0.0391602
 H              2.20176    1.97949   0.141456            0.055271 -0.0672486   0.134466
 H              3.08799    2.50448    0.50126            0.102618   0.168756  -0.221034
 H              3.97563    1.94463   0.132153            -0.128191    0.122295 -0.00899618
 H             0.407762    3.06706   0.132036           -0.194512   0.093781   0.141313
 H              1.29737    3.58733   0.503277          -0.0100197   0.117418   0.318439
 H              2.18971     3.0764   0.172733           0.0997336   0.171929 -0.0298398
 H              3.07689    3.61263   0.496996          -0.0922574   0.127829  0.0128279
 H              3.97027    3.07859   0.187216           -0.184144   0.187091   -0.22045
 H             0.415134    4.16692   0.209913            0.116986 -0.0756261   0.153162
 H              1.31209    4.73865    0.51134            0.146371   0.137647 -0.0277663
 H              2.18319    4.17832   0.242353          -0.0472564  -0.214848    0.09338
 H              3.07539    4.72553   0.535551           0.0637557   0.138073  0.0398522
 H              3.98444    4.19424   0.223858            0.225796  -0.188241 -0.0718732
 H             0.438053   0.278679    1.10164           0.0460249   0.154747   0.157148
 H              1.36019  -0.267362    1.41085              0.26802 -0.00256599   -0.228636
 H               2.2058   0.353795     1.1351            0.194894   -0.15838 -0.0578474
 H              3.05381  -0.249012    1.40242           0.0761963  0.0524851  0.0564071
 H               3.9588   0.319227    1.07592            0.199288  -0.199417 -0.0935378
 H             0.413787    1.39167     1.1069          -0.0658584 -0.0890576 -0.0668931
 H              1.31625   0.863026    1.41983          -0.0232116   0.110903  0.0982019
 H              2.19601    1.43205    1.11777            0.111247 -0.0450797 -0.0512683
 H              3.08596   0.868682    1.40584           -0.161217   0.068731   0.204884
 H              3.99709    1.40514    1.09295          -0.0192021  0.0974595 -0.0508078
 H              0.38116    2.48851    1.10334          -0.0156395 -0.0335057    0.21183
 H              1.31326    1.95169    1.43616           -0.168998   0.208387  0.0824636
 H              2.20553    2.50095    1.12544           -0.186989  -0.257273  0.0675224
 H              3.09959    1.94841    1.44971           -0.055333 -0.0938172  -0.313002
 H              3.98737    2.49941    1.12799           -0.036078   0.115097 -0.0762377
 H             0.401963    3.59099    1.14021           -0.132079  0.0397942   0.148021
 H              1.30372     3.0347    1.44952           0.0139499    0.13679  -0.166984
 H              2.18665    3.59645     1.1405            0.136713 -0.0255775   0.268362
 H              3.10495    3.04405    1.44042          -0.0817338  0.0301866 0.00318127
 H              4.02473    3.60764     1.1486           -0.106822 0.00838162   0.038282
 H             0.440098    4.75544    1.17444            0.119865 -0.0906627  -0.213767
 H              1.30313     4.1477    1.44226          -0.0825994  -0.242725  0.0556301
 H              2.21368    4.71771    1.21279           -0.186839 -0.0160118  0.0515277
 H              3.11143    4.13985    1.46027          0.00754424 -0.0848367   0.109841
 H              3.98195     4.7528     1.1927          -0.0651696  0.0458492  0.0378762
 H             0.463654   -0.28859    2.04174            -0.10232 -0.0467248  0.0594574
 H              1.30743   0.298574    2.35179            0.158596  -0.142285  0.0880146
 H              2.21968  -0.274165    2.06944            0.294605  -0.137513   0.052012
 H              3.09497   0.314805    2.35479           0.0241149 -0.0268243 0.00305565
 H              3.96098  -0.271718    2.02065            0.201332   0.176394   0.059095
 H             0.411591   0.846971     2.0579          -0.0360898 -0.0683212 -0.0775281
 H              1.30143    1.40662    2.38816           0.0747371   0.286383   0.101585
 H              2.17844   0.861617    2.07742            -0.11779   0.113178  0.0897721
 H              3.09132    1.39451     2.3877          -0.0648059 -0.0846475 -0.0158344
 H              3.99534     0.8577    2.03782           -0.101448    0.12874  0.0933501
 H             0.399172     1.9337     2.0484          -0.0257483   0.107237  0.0616731
 H              1.31017    2.48425    2.39475              0.10724    0.177542 -0.00234113
 H              2.21957    1.94027    2.08022           0.0122123   0.116831  0.0553351
 H              3.11051    2.47971    2.41264            0.0772026   -0.341685 0.000336096
 H              3.98933    1.93542    2.07533           0.0712789  -0.164485 -0.0787433
 H             0.416514     3.0468     2.0819          -0.0791498 -0.0121724 -0.0149514
 H              1.30937     3.5783    2.39764          -0.0497624  0.0917181 -0.0453699
 H              2.20864    3.01843    2.07634          -0.0904913  0.0890745 0.00816463
 H              3.10092    3.57038    2.38919            0.158663 -0.0663967 -0.0459907
 H              4.00182    3.04003    2.08712           -0.025439   0.211003 -0.0595879
 H             0.419602    4.16598    2.10026           -0.157385   -0.01605  -0.114556
 H              1.32944    4.71471    2.36006            0.220424  0.0954308  0.0348784
 H              2.20818    4.10325    2.09263           0.0800144  -0.214946  0.0776617
 H              3.07425    4.72059    2.38682           0.0234664 0.00145255  0.0229752
 H              4.00952    4.13389     2.1183          -0.0311075 -0.0721625 0.00170976
 H             0.405207    0.30227    3.00133           0.0608222  0.0500441  -0.033288
 H              1.30554  -0.312038    3.25205           -0.215149  0.0651319  0.0277388
 H               2.1882   0.279083    3.00228           0.0124664  0.0262931  -0.110953
 H              3.09599  -0.274767    3.27545          -0.0566329 -0.0290021  -0.138526
 H              4.00344   0.296127    2.97718           -0.223749  0.0268622 -0.0468167
 H             0.402616    1.40614    3.02491          -0.0953408   0.232595  0.0727555
 H              1.30057   0.824001    3.31246           0.0310755 -0.0633131  -0.211541
 H              2.19472    1.37355    3.01697           0.0920693 0.00766659 -0.0898389
 H              3.08267    0.83514    3.32492           -0.251582  -0.026541  0.0421911
 H              3.99008    1.38323    3.01907           -0.222684   0.207923 -0.0273614
 H             0.394438    2.49502    3.03328            0.185957  -0.153645 -0.0269432
 H              1.31264    1.91971    3.34491            0.168247  0.0705475 -0.0486419
 H              2.20943    2.46647    3.03639          -0.0708712   0.151209    0.14004
 H              3.07906    1.91999    3.34566           -0.183577 -0.0449414   0.239055
 H              4.00271    2.46386    3.03791          -0.0894244  -0.166987    -0.2808
 H             0.400057     3.5951    3.03529            0.104138  -0.122272  0.0216372
 H              1.28345    3.02156    3.36355           -0.130973    0.25196  -0.134357
 H              2.20441    3.54365    3.01507             0.18347  0.0404013  -0.154427
 H              3.10169    3.02558    3.35817           -0.230076 -0.0503029  0.0532477
 H              4.00093    3.58057    3.03391             0.16326  -0.139086  0.0342059
 H             0.480235    4.75731    3.05459            0.171056 -0.0948233  -0.347422
 H              1.32377    4.08798    3.31413           -0.201192  -0.184441  0.0806111
 H              2.20685    4.69382    3.03722            0.206507  -0.201036  -0.044286
 H              3.08495    4.09204    3.31739            0.152856  -0.235085   0.215675
 H              3.93949    4.73182    3.07907          -0.0924259  -0.167591  -0.330317
 H             0.399876  -0.291196     3.8833           0.0223266   0.153042  -0.106365
 H              1.30095   0.226097    4.22983           -0.202985    0.18284   0.104932
 H              2.19525  -0.355189    3.88756            0.133785  0.0244415   0.193358
 H              3.07157   0.230471    4.25269           -0.175415  0.0827598  -0.204586
 H              4.01975  -0.315926    3.90481           -0.156212    0.29019   0.135172
 H             0.395519   0.842844    3.97654          -0.0544366  -0.150806  0.0345156
 H              1.30248    1.37177    4.28351           0.0122463 -0.0612866  -0.112768
 H               2.1872   0.812196    3.95803          -0.0676926  -0.191458  -0.168868
 H              3.09305    1.35064    4.28317            0.169969   0.148441   0.111543
 H               4.0072   0.770845    3.95404           -0.143188 -0.0984764 -0.0325424
 H              0.41069    1.95036    3.97275           -0.129049  -0.218322 -0.0727242
 H              1.31127    2.49516    4.32658             0.13069   0.157342  -0.283448
 H              2.19506     1.9146    4.00478            0.185578  -0.204814   -0.10424
 H              3.09721    2.45154     4.3095           0.0728642   0.250516 -0.0845741
 H              4.00173    1.87481    3.98712          -0.0833691   0.129504   0.179149
 H             0.419943    3.04162    3.99664            0.142702 -0.0888058  0.0894946
 H              1.33064    3.60165    4.30499          -0.0600221 -0.0351338   0.396332
 H              2.19302      3.015    3.97592           -0.199289  0.0444256  -0.154881
 H               3.0666    3.57335    4.29853           -0.124036  -0.178186   0.306297
 H              3.97858    3.01437    4.00848          -0.0964227 -0.0948901 -0.0117882
 H             0.455388    4.18215    3.98813           0.0576051  -0.110256   0.183782
 H               1.3894    4.88922    3.99214            0.137066  -0.021881  -0.002207
 H              2.21598    4.13457    3.96223           0.0638908  0.0958585  0.0158325
 H              2.92806    4.96782    3.89527            -0.257067 -0.00587802   -0.234839
 H              3.92108    4.16157    3.99696            0.086732  0.0118097  -0.186848
