125

 H             0.727759  -0.663767   0.577923          -0.0717763   0.191297 -0.0867367
 H              1.34407   0.285161   0.453475           -0.167291   0.111356   0.194575
 H              2.26979   -0.60169   0.687681           0.0349962  0.0404757  0.0732359
 H              3.06449   0.273277   0.464475            -0.131267    0.189889 0.000743069
 H              3.67689  -0.651752   0.613554            0.103541   0.101632  -0.129784
 H             0.405346   0.834625   0.174228            0.111416    0.12616  0.0166767
 H              1.28481    1.41111    0.48174            0.080166   0.238894 -0.0858551
 H              2.19073   0.864283   0.160298           -0.298127 -0.0123342  0.0424009
 H               3.0655    1.42603   0.478951             0.15321 -0.0165788   0.034298
 H              3.91294   0.881259   0.129964            0.173838  -0.135975   0.256873
 H             0.407058    1.98467   0.134876           -0.248538  0.0832834 -0.0142908
 H              1.29883    2.50636   0.486894          -0.0965105 -0.0464172 -0.0350555
 H              2.18908    1.96431   0.155813          -0.0430719  0.0121259 -0.0326158
 H              3.08637    2.52176   0.498881           0.0234309 -0.0736758  0.0987518
 H              3.95125    1.98481    0.12023           0.0221184  -0.260117  -0.162915
 H             0.421746    3.09378   0.167454           0.0893843  0.0652686 -0.0761641
 H              1.31973    3.62793   0.485944          -0.0578381  0.0812479   0.343928
 H              2.19812    3.06354   0.149375            -0.200895 -0.00802763  -0.0397145
 H              3.09772    3.61935   0.478556            0.194864   0.231227   0.111935
 H              3.99274    3.08571   0.166331           0.0226878   0.062828  -0.196818
 H             0.424271    4.21436   0.225268          -0.00794794   0.0290274  -0.0356639
 H              1.34658    4.72902   0.535996           -0.216128  -0.144828   0.011011
 H              2.21708    4.18038   0.196442          -0.0782911  -0.084533 -0.0713221
 H              3.10672    4.71409   0.511847           0.0939104  -0.339885  0.0189301
 H              4.00668    4.18402    0.16694            0.261842   0.208733 -0.0125194
 H             0.428707   0.274847    1.11145           -0.210501  -0.201335  0.0898625
 H              1.35619  -0.273065    1.39146           0.0741777  0.0519941    0.19392
 H              2.19957    0.36409    1.13143            0.149463  -0.147626  -0.059141
 H              3.06912  -0.239122    1.42302            0.185066  0.0857828  -0.159966
 H              3.97631   0.317231    1.07996            0.208208  0.0134221 -0.0487268
 H             0.395648    1.41914    1.09382           0.0715619   0.127809  0.0468735
 H              1.28057   0.846911    1.41034           0.0937831   -0.22568 -0.0239475
 H              2.17932    1.43151    1.11371          -0.0960654  0.0932801 -0.0559653
 H               3.1093   0.876617     1.4209           -0.133946 -0.0216173  -0.040149
 H              3.98781    1.41865    1.09928          0.00941133    -0.2551   0.016696
 H             0.397727    2.53431     1.1239           -0.108585  -0.265156  -0.052388
 H              1.30097    1.93764    1.43894           0.0362032  -0.113942  -0.103318
 H               2.1921    2.48748    1.12467            0.157439  0.0864597   0.037542
 H              3.08813    1.95925    1.45912          -0.0769445   0.146402  0.0818309
 H              4.00691    2.49874    1.11071          -0.0198957 -0.0274414  -0.227778
 H              0.43667    3.62946    1.13601            0.209984  0.0407418  -0.203671
 H              1.29544    3.03997     1.4547             0.0572496 -0.000702763   -0.0985278
 H              2.21935    3.57636    1.13121           -0.0359916 -0.00631199  -0.0943512
 H              3.09954    3.03112    1.44662          0.00752231  -0.142256  0.0144732
 H              4.00444    3.60088    1.13611           -0.276695   0.141844  -0.193059
 H             0.465249    4.77004    1.19107          -0.0081331   0.227134  -0.136121
 H              1.33225    4.13264    1.46138           -0.171203 -0.0102676 -0.0137389
 H              2.21683    4.72229    1.20707           0.0196829 -0.0706236 -0.0728139
 H              3.08992    4.12151     1.4415          -0.0274887  -0.131522 -0.0465295
 H              4.00192    4.69462    1.14502            0.318194  0.0822849   0.128952
 H             0.452506   -0.29647     2.0528          -0.0630606  0.0140084 -0.0894289
 H              1.30737   0.301809    2.34063           0.0195011  0.0247987   0.131999
 H              2.22293  -0.267156    2.05876           0.0523919 0.00244375   0.198724
 H              3.09143   0.321382    2.36472          0.000499071   0.0478879   0.0393919
 H              3.94957  -0.271231    2.03876          -0.0657808 -0.0178956  0.0664005
 H             0.395579   0.835939    2.04021           -0.114713  -0.194606   0.139925
 H              1.28791    1.38928    2.36703          -0.0734733   0.281316  0.0417247
 H              2.18048    0.86142    2.06035          -0.0429756  0.0709907   0.135001
 H              3.09633     1.4012     2.3858          -0.0613491   0.129432 0.00325096
 H              4.03096      0.848    2.06289           -0.320125  0.0565309   -0.20756
 H             0.383649    1.93863    2.06745             0.12605   0.252563 -0.0589781
 H              1.27812    2.46805    2.39186           0.0225378  -0.286319   -0.16891
 H               2.1776    1.92548    2.07548           -0.135389   0.102537   0.226012
 H              3.08504    2.47517    2.41064           0.0720042 -0.0724933 -0.0342871
 H              3.99001    1.93707    2.06994          -0.0721275  -0.154715 0.00597741
 H             0.411244    3.04782    2.09573           -0.236342   0.134275   0.112836
 H              1.30561    3.56332     2.3808           -0.047334  0.0303618 -0.0151883
 H              2.19652    3.00645    2.07533          0.00218717   0.108767 -0.0386943
 H              3.10409    3.55895    2.39142            0.215043   0.145808   0.016676
 H              4.02353    3.04071    2.10896            0.283087  -0.170533  0.0440041
 H             0.439981    4.16304    2.12086           -0.154604 -0.0862719  -0.110748
 H              1.36022    4.74211     2.3953           0.0542205   0.176219   0.081562
 H              2.20259    4.09568    2.10235           0.0423124   0.245712 -0.0877714
 H              3.05063    4.71053    2.37402           -0.120353   0.010304  -0.028471
 H              3.97309    4.17467    2.11705          0.00568356  -0.359956   0.135246
 H             0.388103   0.283572    2.99269           0.0489059 -0.0876222   0.154041
 H              1.30447  -0.316079    3.21529          0.00447486   0.109522   0.118774
 H              2.18645   0.280196    2.99493           0.0133222  -0.222227  -0.253335
 H              3.10735  -0.316507    3.24601          -0.0417431 -0.0654233   0.183203
 H              4.02206     0.2707    2.98038             0.199217    0.170638 -0.00562902
 H             0.398336    1.38716    3.01062           0.0560599 -0.0126114 -0.0655919
 H               1.3034   0.819725     3.3042            0.176267  -0.115938 -0.0862722
 H              2.20277    1.37932    3.02392          -0.0329746 -0.0809754  0.0507078
 H              3.09928   0.819877    3.31919          -0.0956316 0.00629934 -0.0653154
 H              3.98216    1.38546    3.02514          -0.0202816   0.156811 -0.0853993
 H             0.377336    2.47917    3.03807            -0.04354 -0.0456918   0.130653
 H              1.30664    1.90783    3.32176            0.274232 0.00454688   0.135237
 H              2.19994    2.47393    3.02146          -0.0420828  -0.103897   0.174016
 H              3.09992    1.91164    3.35539            -0.160434  0.00800805 -0.00136452
 H              4.02069    2.48039     3.0336           -0.105525 -0.0257726    0.18315
 H             0.365459     3.6046    3.04209           0.0915119 -0.0585983  -0.140784
 H              1.27132    3.01951    3.33452           -0.144123  -0.264496 -0.0526684
 H              2.19499    3.55673    3.03144           0.0492034   0.137433  0.0946446
 H              3.09107    3.00103    3.34853           -0.179757   0.156892 -0.0813208
 H              3.99969    3.60444    3.06041           -0.145175 -0.0729373   0.215186
 H             0.518104     4.7829    3.07397           0.0133408  -0.171257   0.135327
 H               1.3193    4.08936    3.29686           -0.153116   0.061112  -0.238767
 H              2.20273    4.69596    3.07716            0.075924  0.0957093  0.0674405
 H              3.06699     4.0725    3.32855           0.0163162 -0.0754986  -0.038285
 H              3.88312    4.75477    3.06603          -0.0593274  -0.162943   0.160512
 H             0.431337  -0.337791    3.87766           0.0356277  0.0413277 -0.0438945
 H              1.32314   0.219991    4.22816             -0.06699  -0.0970006 -0.00214425
 H              2.20009  -0.341175    3.89551            0.189847   0.107545  -0.203593
 H              3.08804   0.232343     4.2253            0.238803  -0.222585 -0.0613125
 H              4.00938  -0.303736    3.89295          -0.0121176  -0.136234  0.0927367
 H             0.421865   0.797599    3.98084            0.172715 -0.0892032  -0.034425
 H              1.32272    1.34601    4.28594            0.121362   0.115857  0.0469363
 H              2.19518   0.792102    3.94167            0.0197073    0.214869 -0.00813647
 H              3.08284    1.34425    4.30184           -0.108896 -0.0856786  0.0349169
 H              3.99705   0.821405    3.96329          -0.0273385   0.177808   0.124375
 H             0.412739    1.88958    3.96885          -0.0405453  -0.150426  -0.107029
 H              1.30243    2.45689    4.29574          -0.0182114    0.16268  0.0875249
 H              2.19779    1.91852    3.97807            0.192674  -0.209702    0.19927
 H              3.08888    2.46454    4.31135          -0.0780195 -0.0394235  -0.210453
 H              3.99544    1.93433    3.98942          -0.00597607   0.0701222  -0.0879922
 H             0.365518    3.03731     3.9884            0.103466  0.0589088  -0.219997
 H              1.31099     3.5912    4.28205            0.136947  -0.005266  0.0459273
 H              2.17572    3.02587    3.97813          -0.0551262  -0.240093  -0.229582
 H              3.06806    3.56022    4.30919          -0.0460405  -0.126783   0.142871
 H              3.98796    3.03583    3.98843           0.0606381  0.0655505  -0.168412
 H             0.461103    4.20195    3.99364           -0.122883   0.250607  -0.162187
 H               1.3899    4.91697    3.93915            0.0555452 -0.00855165   0.0843894
 H              2.21168    4.12647    3.99307          -0.0974643  0.0940786  0.0735501
 H              3.01165    4.96866    3.90249              0.15123 -0.00264713   0.0771715
 H               3.9035    4.19486    4.01095           -0.162128  0.0933467  0.0987756
