125

 H            0.0807147  -0.045009   0.132014            0.326708 -0.0501505   0.367973
 H              1.15075    0.29983   0.366566           0.0198209   0.106314   0.589537
 H              2.10127  -0.218401   0.131129           -0.183704  -0.291943   0.511044
 H              3.17141   0.229503   0.399203           -0.243349   0.115655   0.548982
 H               4.17486 -0.00302937   0.0319161            0.106216  -0.154711 0.00718065
 H             0.333203   0.994795    0.29682            0.295406  -0.376506   0.144283
 H              1.36585    1.36047   0.401805          -0.00541068 -0.00604539    0.808045
 H              2.33092   0.878499   0.179969           0.0328576  -0.200376  -0.157673
 H              3.35645     1.3346   0.376339           0.0899574  0.0366354    1.43144
 H              4.42269    1.00443   0.305982           0.0633618  -0.325077   0.331789
 H           -0.00381422     2.02348   0.0593527            0.441779  -0.204281   0.487629
 H              1.10489    2.41947   0.328947            0.401632   0.271429   0.206842
 H              2.21289    1.97668   0.151233            0.444143  -0.341389   0.229898
 H              3.18603    2.41276   0.351358             0.10065   0.523275   0.411264
 H               4.1957    2.05362    0.10266           -0.215409  -0.270076   0.394119
 H             0.282018    3.12789   0.328291            0.168739   -0.21663   0.147648
 H              1.31613    3.47343   0.215086          -0.000172257      0.54895     0.920453
 H              2.31541    3.06277   0.220664            0.199239  -0.216599  -0.075174
 H              3.35346    3.53008   0.409636           0.0126497   0.372616    1.33848
 H              4.41551    3.17546   0.306923             -0.476729 -0.000686854   -0.0463896
 H             0.115897    4.15441  0.0851744             0.13136   0.212528  -0.104797
 H              1.10494    4.53438   0.306632           0.0619261   0.458848   0.154926
 H              2.16674    4.14639   0.259764           0.0421772  -0.437807   0.668063
 H              3.19408    4.60941   0.393998           -0.303762   0.169966  0.0913861
 H              4.12407    4.17515  -0.119117           0.0879779   0.199176  0.0744323
 H             0.300162   0.252185    1.18085            0.319275   0.156895  -0.176459
 H               1.2845    -0.2826    1.30822          -0.0820752  -0.358636 -0.0516362
 H              2.22588   0.282341    1.11027           -0.622073      0.161  0.0335605
 H              3.13659  -0.338227    1.40158           -0.366774  -0.224219     0.3367
 H              4.02476   0.288486    1.11484          -0.0778553  0.0297097  0.0363394
 H            0.0945859    1.32476    1.31433            0.475941   0.178232  -0.209736
 H              1.18249   0.860202    1.35106            0.729216  -0.591105   0.233529
 H              2.20562    1.40352    1.12436            0.294471   0.211882  -0.342411
 H              3.12863   0.827956    1.33802           -0.345504  -0.166691   0.592572
 H              4.10789    1.36002    1.28659           -0.554191   0.120549  -0.268387
 H             0.264227    2.37674    1.12219            0.144717 -0.0407184   0.326072
 H               1.2558    1.95778    1.28481           -0.232844  -0.166851   0.180902
 H              2.19289    2.50488    1.16173           -0.531744   0.361822   0.543766
 H              3.17001    1.89334    1.31666           -0.855916  -0.110576   0.467261
 H              4.25365     2.4203    1.14128            -1.02984   0.167742   0.236504
 H           -0.0653105    3.38087    1.32956            0.173119   0.337022  0.0309641
 H              1.10226    3.08261     1.2369            0.469577  -0.117203   0.470626
 H              2.19953    3.57395    1.19014            0.536152   0.283797  0.0476958
 H              3.14036    2.96857    1.30905          -0.0011597  -0.375648    0.64128
 H              4.09071    3.45131    1.31512           -0.352665  0.0429417  -0.125101
 H              0.27453    4.39083    1.12464            0.150109   0.281463 -0.0247195
 H              1.31101    4.16706    1.30759            0.113768  0.0102541   0.071531
 H              2.29438     4.7061    1.17487           0.0767378    0.31577   0.323704
 H              3.16674    4.07283    1.35476             -0.45584 -0.00271316  -0.0776665
 H              4.12468    4.47837   0.948745           -0.585894   0.284154  -0.201799
 H            0.0850184  -0.244303    2.16115            0.598159  -0.364041 -0.0333617
 H              1.12909   0.303476    2.22191            0.416365  -0.159695  -0.146734
 H              2.09394  -0.213145    2.11317           0.0446167  -0.161552  -0.101367
 H               3.1276   0.287012    2.27186          -0.0989274 0.00281007   0.108603
 H              4.12266  -0.176336    2.11629           -0.273643  -0.216043  -0.388704
 H             0.221249   0.870091    2.27874            0.196895  -0.270298 -0.0712675
 H              1.18341    1.41852    2.24064           -0.425071  -0.140446  -0.156814
 H              2.16852   0.876884    2.11523           -0.478001  -0.340645  -0.499793
 H              3.23375    1.37552    2.28276           -0.723984   0.251461   0.447881
 H               4.2568   0.909689    2.23429           -0.761667  -0.252069  -0.217204
 H              0.22887    1.95216    2.19461             1.05343  -0.340519   0.205837
 H              1.20628    2.52155     2.2038            0.959211   0.261325  -0.262537
 H               2.1547    1.94415    2.09644            0.447498  -0.270931    0.29624
 H              3.08689    2.45638    2.25781            0.257493 -0.0460953   0.126718
 H              4.10329    2.03212    2.18434           -0.148197 -0.0657906  0.0861088
 H              0.26354    3.04737    2.26628              0.1356  -0.484288 -0.0134102
 H              1.19502    3.59697    2.22232          -0.0635853   0.195088     0.4304
 H              2.20861    3.05745    2.15521           -0.410113 0.00409195  -0.664394
 H              3.26682    3.53166    2.28894           -0.284767   0.556664   0.589588
 H              4.38767    3.13158    2.31325           -0.746684  -0.365608   -0.22093
 H             0.186239    4.13178    2.18318             0.777688   -0.550723 -0.00922023
 H              1.12121    4.72103    2.27914            0.166987   0.281272  -0.045481
 H              2.13799    4.15894     2.1393           0.0788267 -0.0206719   -0.06132
 H              3.12535      4.687    2.29247           -0.204424  -0.083791 -0.0360168
 H              4.11713    4.22873    2.06908          -0.0921958   0.176921  -0.451808
 H             0.335785   0.240907    3.19079            0.398319   0.349737  -0.309446
 H              1.33598  -0.312799    3.12644             0.21934 -0.0628782  -0.183686
 H               2.2577   0.270899    3.10309           0.0513617   0.252993 -0.0645407
 H              3.27197  -0.316596    3.21491           -0.388415  -0.282068   -0.49867
 H              4.19416   0.327722    3.15118           -0.484109   0.182712  0.0785984
 H            0.0523585    1.35848      3.231            0.835243   0.252425  0.0243444
 H              1.27303   0.826641    3.15276            0.746561  -0.260702  -0.139422
 H              2.23454    1.38531    3.10525            0.127284   0.349871  -0.971918
 H              3.24554   0.790103    3.23595           -0.157933  -0.144403 -0.0486114
 H              4.14846    1.42569    3.18392           -0.173361    0.21493   -0.45217
 H             0.284738    2.40653    3.19784             0.31937   0.509381   0.191925
 H               1.2659    1.91886    3.15818            0.276543  0.0897798  -0.462444
 H              2.21662    2.47829      3.047            -0.30952   0.214128  0.0453293
 H               3.1508    1.88954    3.21689            -0.309703  0.00513657 -0.00993298
 H              4.40186    2.48523    3.19938           -0.611123  0.0859217    0.03347
 H             0.230694    3.49973    3.26846             1.23087   0.561677  -0.172963
 H              1.22785    2.99947     3.1603             0.623421   -0.178556 -0.00835496
 H               2.2718    3.55698     3.1944            0.793453    0.73761  -0.484671
 H               3.2243    2.93697    3.23642            0.327879  0.0428201  0.0724728
 H              4.15608    3.51589    3.29426           -0.156209   0.267368 -0.0903636
 H             0.370004      4.597    3.16997            0.181507   0.163628  -0.282586
 H              1.33801    4.10786    3.16138           -0.143055   0.116102  -0.113495
 H              2.30853    4.70675     3.1151           0.0102083  0.0385308   -0.22478
 H              3.23536    4.05574    3.21794           -0.271494  -0.121498  -0.283738
 H              4.21748    4.62194    3.06404           -0.715563   0.483898  -0.377243
 H            0.0202802 -0.0628732    4.20202            0.102895   -0.16524   0.193193
 H              1.11399    0.27208    4.07822            0.229324  -0.105851   0.105015
 H              2.09546  -0.186081    4.10852           -0.251654 -0.0661076  -0.147995
 H              3.14741   0.277954    4.14448           0.0418443 -0.0531988  -0.271028
 H              4.07104  -0.276212    4.05612           -0.109616  -0.345827  -0.198752
 H             0.320538   0.984182    4.21755            0.230069   -0.41931  -0.184347
 H              1.31208    1.37171    4.10192            -0.221685 -0.00572953   -0.319165
 H              2.27636   0.905458    4.10822          -0.0641451  -0.422664   -0.79649
 H              3.26798    1.36214    4.18011            -0.352759   -0.159136 -0.00182116
 H              4.26297   0.846406     4.1561           -0.780738  -0.435361  -0.823885
 H           0.000104163     2.02489     4.19168            0.446933  -0.178447 -0.0939929
 H              1.08502    2.44176    4.06963           0.0229628   0.109833  -0.723719
 H              2.18876    2.03201    4.01332            0.123672  -0.345729  -0.187143
 H              3.20329    2.43274    4.17807          -0.00571746  -0.0915369    -0.87211
 H              4.18548    1.95692    4.13495            0.314338  -0.640959   0.345358
 H             0.268203    3.14928    4.29622          -0.0660318  -0.104446  -0.395616
 H              1.28976    3.50343    4.12566           -0.214166  0.0791252  -0.206376
 H              2.30377    3.12419    4.23369            -0.40981  -0.463845  -0.876195
 H              3.33819    3.53599    4.16429            0.207746   0.460279    0.20002
 H              4.35949    3.03317    4.23228           -0.660679  -0.167613  -0.590079
 H            -0.130735    4.17258    4.10258           0.0694321   0.285987   0.142096
 H             0.947772    4.52368    4.09563           -0.122497   0.205876  -0.499222
 H              2.07034    4.24715    4.06852           -0.293044   0.266611 -0.0438635
 H              3.09883     4.5997     4.1399          -0.0883433   0.237944  -0.614987
 H               4.2038    4.23305    4.15077           0.0225185   0.348386   0.106518
