125

 H             0.826085  -0.644566   0.545078          -0.0175811 -0.0909527 -0.0693339
 H              1.32664   0.323253   0.485418            0.140462   0.095221  -0.107487
 H              2.10231  -0.524471   0.552107           0.0529044 -0.0136392 -0.0790452
 H              3.03692   0.312033   0.464486           -0.105954   0.111841 -0.0326501
 H              3.67541  -0.595504   0.562024          -0.0238649  0.0123775 -0.0798552
 H             0.423992   0.847015    0.15758           -0.194656  0.0227637   0.190345
 H              1.30446    1.43043    0.50059          -0.0820769  0.0908762  0.0354763
 H              2.19058   0.876561   0.144647           -0.130273  0.0234801 -0.0814753
 H              3.10097    1.41179   0.468366           -0.141807 -0.0684036   0.148664
 H              3.95001   0.838333   0.143061            0.205541  0.0436574 -0.0779715
 H             0.413527    1.95361    0.15551            0.023723  -0.133297   0.225646
 H              1.30735    2.51595   0.483467             0.11199  0.0871978   0.132141
 H              2.20414    1.99114   0.146266           0.0291474 -0.0168874 -0.0358863
 H              3.10777    2.49113   0.468174           -0.124172  0.0594144   0.111931
 H              4.01054    1.96099   0.164958            0.267586   0.178701   0.058998
 H             0.427729    3.08576   0.140602            0.124536   0.159084  -0.349869
 H              1.31277    3.62239   0.513126           0.0619209  0.0313057  -0.224526
 H              2.18548    3.08617   0.162397           -0.036243   0.150954  -0.103952
 H              3.10863    3.60583   0.504419             0.08119 -0.0731635   0.178556
 H              3.98188    3.05883   0.170291           -0.128529  0.0806836  -0.143286
 H             0.413327    4.21316   0.257712           -0.204422  -0.190676  -0.193971
 H              1.31308    4.71791    0.56371          -0.0730471 -0.0210903  -0.104164
 H              2.20627    4.18662   0.220151          -0.0286848  -0.102694   0.100557
 H              3.09016    4.71303   0.557115            0.157028  0.0109236 -0.0413863
 H              3.96986    4.16737   0.183947          -0.00655465   -0.149101   0.0174106
 H             0.424455   0.273357    1.09825          -0.0991693  -0.120719   0.115561
 H              1.34742  -0.272034    1.41092          -0.0601562  0.0842388   0.199255
 H              2.20109    0.36186    1.13902           -0.192256  0.0914531  0.0738203
 H              3.04356  -0.255309    1.38775          -0.0319228   0.033515   0.136471
 H               3.9903   0.294219    1.09541           -0.182647   0.104658  0.0725261
 H             0.393876    1.38523    1.10846          -0.0669444  0.0702569  0.0335684
 H              1.29605   0.868752    1.43543           0.0515979   0.112278 -0.0581082
 H              2.20441     1.4397    1.10871            0.123461   0.270337  0.0102611
 H              3.11431    0.86346    1.42345           0.0918557  -0.127239  -0.137672
 H              3.99657    1.40421    1.10355          -0.0490093   -0.33949   0.032554
 H             0.385088    2.49897    1.09082            0.0533191  -0.0827164 -0.00513584
 H              1.29389    1.97278    1.43873           0.0124131  -0.172983 -0.0172167
 H              2.21184    2.51358    1.10743          -0.0251924  0.0218291 -0.0027626
 H              3.08668    1.95858     1.4308           -0.107461  0.0183736  -0.189619
 H              4.02429    2.51092    1.12503            0.355506   0.121758  0.0891575
 H             0.438904    3.59887    1.15811           -0.047131   0.138778 -0.0149335
 H              1.30221    3.03384    1.44002            0.187125   0.115967  0.0478155
 H                2.215    3.59028      1.131           0.0409597   0.100191 -0.0934957
 H              3.11073    3.03849    1.44438           -0.278606 -0.0587789 -0.0113979
 H               4.0119    3.61025    1.12612            -0.219321 -0.00515878  -0.0725687
 H             0.478189     4.7621    1.25352          -0.0537542  0.0758884   0.209844
 H              1.35231    4.10909    1.47787          -0.0911878  0.0260455  -0.275147
 H              2.19263    4.73558    1.22572            0.180707   0.236091 -0.0406519
 H              3.10321    4.12538    1.46281           0.0752272  -0.206267  -0.121537
 H              3.99512    4.72469    1.19187           0.0728991   0.180329  0.0437943
 H             0.448557  -0.310947    2.05507           0.0144612  -0.169048  -0.239541
 H              1.29703   0.289338    2.35137           -0.224203  0.0969585  -0.120383
 H              2.18516  -0.276998    2.07854          -0.0799106  -0.191563 -0.0844241
 H              3.07989   0.306784    2.33891            0.175445   0.159678    0.14351
 H              3.93377  -0.284955    2.04183          0.00511435  -0.134713    0.23118
 H             0.384073   0.831606    2.06628           0.0981787   0.204586 -0.0410526
 H              1.29186    1.38488    2.38532            0.244562 -0.0498761  0.0351651
 H              2.19068   0.862406    2.07872          -0.0729766  0.0389797 -0.0391719
 H              3.08889    1.38668    2.36497          -0.0907314  0.0106873  -0.187594
 H              4.00728   0.839553    2.05298            0.082272   0.102396  0.0603342
 H             0.387344    1.91539    2.05623          -0.0367271  0.0471051 -0.0339949
 H              1.29921    2.48242    2.38212            0.092746  -0.237415   0.101374
 H              2.18822     1.9485    2.06475            0.170832  0.0790591   0.112591
 H              3.10158    2.47512    2.38065           -0.151591 -0.0847725  -0.232495
 H               3.9892    1.93545    2.06385          -0.0195285  0.0990366   0.069583
 H             0.383625    3.01913    2.08083           0.0980784   0.227265    0.10232
 H              1.30977    3.55397    2.39839            -0.14789 0.00272648 -0.0265409
 H              2.20469    3.02801    2.07846           0.0135808   -0.10192   0.052982
 H              3.10169    3.55246    2.39227             0.10961 -0.0485931   0.259531
 H              4.00504    3.04604    2.06952            0.128615   -0.23937   0.187518
 H             0.419182    4.12719    2.10842           -0.0504872   0.0223235 -0.00523027
 H              1.32768    4.69098    2.37493           0.0533941  -0.140634 -0.0887356
 H               2.2252    4.10965    2.11184           -0.148709  0.0524264  -0.194704
 H              3.09051    4.68908    2.37912            -0.193817 -0.00479324    -0.14769
 H               4.0143    4.13318    2.10538           0.0327812   0.199261  0.0488362
 H             0.388093    0.25868    2.99021          -0.0115354 -0.0111197 -0.0892109
 H              1.32395  -0.322398    3.27531            0.036348   0.108357  0.0192999
 H              2.21342   0.286232    2.98355           -0.024952   0.249393  -0.141784
 H              3.11702  -0.307432     3.2771          -0.0583392 -0.0321978   0.254457
 H              3.99516   0.278245    2.98662            0.124789  -0.267196  -0.168175
 H             0.385851    1.36815    3.00678           -0.229674  0.0513841  0.0563074
 H               1.2874   0.806134    3.30571              0.1522 -0.0617896  -0.088309
 H              2.19865    1.39094    3.00692          -0.0124261  0.0819302 -0.0301493
 H              3.10097   0.819934    3.30906             -0.248746 -0.000965394   -0.0917623
 H              3.99003    1.38233    3.00929           0.0913026 -0.0400877  0.0152028
 H             0.388745     2.4723    3.02077            0.139349 -0.0195318  -0.186619
 H              1.28912    1.91311    3.32754            0.170155 -0.0183369 -0.0472432
 H              2.20113    2.46667    3.01541          0.00792882  0.0197693   0.254626
 H              3.10601    1.92629    3.32978           -0.192637  0.0968865   0.100116
 H              3.99085    2.49947    3.03071           -0.198288   0.321106   0.138149
 H             0.382201     3.5695    3.02767           -0.179111  -0.254877  0.0673016
 H               1.2921    2.99014    3.33103           -0.106412  0.0396762  -0.304545
 H              2.19761    3.56763    3.03219          -0.00647509  -0.0763858   -0.237057
 H              3.08244    3.00665    3.34605           0.0613189   -0.16059   0.113813
 H              3.98373    3.59471    3.07069           0.0447013 -0.0320701   -0.22713
 H             0.479999    4.70512    3.05328           0.0258766  -0.169014   0.117075
 H              1.30646     4.0693    3.34899            0.198607 -0.0972698 -0.0538584
 H              2.19177    4.66852    3.04648            -0.123999 0.000667434  -0.0878281
 H              3.07412    4.08457     3.3173           0.0160706   0.181122  -0.104027
 H              3.95575    4.68913    3.05403           -0.109412  0.0228509 0.00800146
 H             0.412989  -0.331869    3.91094            0.100399   0.146241   0.443326
 H              1.31166   0.242396     4.2425           0.0688235 -0.0414787 -0.0043192
 H              2.21991  -0.291336    3.93017          -0.0184233  0.0725401   0.138841
 H              3.09722   0.259979    4.25591          -0.0420659  -0.116551  -0.136714
 H              4.00134  -0.260731    3.92052           0.0514328  -0.265768  0.0959702
 H             0.372484   0.814258    3.97011          -0.00963205   -0.105174  -0.0313527
 H              1.29716    1.35692    4.25795           0.0269317  0.0734883   0.105124
 H              2.19548   0.808773    3.93894          -0.0035226   0.098683  0.0475069
 H              3.09744    1.35249    4.29182          -0.0177972   0.102893  0.0461351
 H              4.01741   0.839595     3.9656            0.138333  -0.160477 0.00223091
 H             0.385615    1.91541    3.98454           0.0646049  0.0338108   -0.10105
 H              1.29068    2.46492    4.30352           0.0456642  -0.052246 -0.0564329
 H              2.19922    1.89484    3.96189            0.187056  0.0487969 0.00871519
 H              3.08057    2.46846    4.27753          -0.0399351 0.00386057 -0.0232657
 H              3.99726    1.96211    3.97539           -0.281626 -0.0647141  0.0706904
 H             0.404292    3.04828    3.96645          -0.0674851   -0.33453   0.172701
 H              1.30662    3.57537     4.3217            0.284183  0.0831422  0.0236145
 H              2.18397    3.02542     3.9813          -0.0175175  -0.114705    0.15527
 H              3.06131    3.58132    4.29146             0.13145  -0.179278  0.0388109
 H              3.99523    3.04952    4.00393          -0.0965216   0.224306  -0.136988
 H             0.465878    4.20639    4.01466          -0.000787217    -0.156494     0.140343
 H              1.41824     4.9858    3.84497           0.0496839  0.0582774 -0.0819761
 H              2.20364    4.16731    4.01162           -0.158414  -0.157406 -0.0331577
 H              2.97803    4.96712    3.86378          -0.0425762 -0.0497465  0.0717307
 H              3.92547     4.1868    4.01919             0.279524 -0.00618654     0.29498
