125

 H             0.799174  -0.642714   0.543485             0.24446 -0.0336098  0.0955923
 H              1.35182   0.278095   0.435195          -0.0357914   0.219005  -0.169729
 H              2.17662    -0.5194   0.569828           0.0169388   0.220536  -0.108055
 H              3.05441     0.2798   0.462683           0.0108453  -0.160102 -0.0025513
 H               3.5385    -0.6791   0.595655           0.0929645  0.0114027 -0.0832625
 H             0.456745    0.83833   0.108107          -0.0359326 -0.0622211  0.0960158
 H              1.31226    1.40081    0.48036          -0.0304292 -0.0372656 -0.0531394
 H              2.19936    0.88021   0.134055          -0.0170141   0.138215  -0.160655
 H              3.09912    1.40609   0.479603          -0.0868407   0.169959 -0.0864367
 H              3.99276   0.834494   0.142807          -0.00920135   -0.127816    0.286705
 H             0.434988     1.9515   0.114295            0.053124   0.124728  -0.261987
 H              1.32649    2.49738   0.497302           -0.138688 -0.0572548  -0.118141
 H              2.19934    1.96879   0.139714             0.251973 -0.00577947  -0.0439357
 H              3.10842    2.48567   0.479944          -0.0966912  -0.160493  -0.120571
 H              4.01245     1.9584   0.118676          0.00844167  -0.134563  0.0407261
 H             0.420383    3.06069   0.144522           -0.252632   0.073058   0.195412
 H              1.30212     3.6169   0.500525           0.0518681 -0.0409474  -0.344835
 H                2.223    3.05782   0.179655          -0.0342459  -0.186525  -0.159173
 H              3.08716    3.60878   0.519525          -0.00455367   -0.120898  -0.0266312
 H              3.96555     3.0878    0.17151          -0.0224814 -0.0269813  -0.164937
 H             0.397409    4.19062   0.210791          0.00563961  0.0793064   0.244851
 H              1.30478     4.7355   0.558009           0.0846132 0.00155329  -0.170295
 H              2.20325     4.1817   0.213783            -0.12667  0.0443595   0.348007
 H               3.0666    4.76081   0.536623           0.0029964 -0.0148364  -0.081523
 H               3.9918    4.21722   0.208052          -0.0666091 -0.0768009  -0.020315
 H             0.435817   0.261716     1.0619          -0.0274519   -0.11865  -0.091727
 H              1.35047  -0.254591    1.40953            0.100759  -0.241099 0.00965124
 H              2.19304   0.363937    1.13345           0.0479548   0.142556  0.0830947
 H              3.01843  -0.259377    1.42414          0.00775633  0.0557485   0.127696
 H              3.95216   0.277255    1.07981           0.0196409  0.0584934  0.0584827
 H             0.401433    1.39518    1.07272            0.050852   0.236484 0.00884962
 H              1.29567   0.846666    1.41963           0.0604532  0.0745516   0.103613
 H              2.21458    1.42152    1.11503          -0.00551336  -0.0677901   0.0981247
 H              3.09192   0.870154    1.44187            0.198718  0.0389077 -0.0323377
 H              4.01892    1.41994     1.0762            -0.061413  -0.0762051 -0.00290701
 H             0.396748     2.4817    1.10413           -0.206363    0.12052  0.0874253
 H              1.31258    1.94721    1.44227            0.133402  -0.298631  0.0373901
 H              2.21274     2.4924    1.12674          -0.0896532  -0.117729 -0.0581956
 H               3.1005    1.95474    1.42678           0.0338318  0.0662375   0.130882
 H              4.00511     2.5216    1.11664          -0.0528096 -0.0594497 -0.0242706
 H             0.403348    3.59099    1.13317            0.343818  0.0345685 -0.0527575
 H              1.31354    3.02212     1.4473           0.0748145   0.147621  0.0745655
 H              2.18503    3.59333    1.15651          -0.0594814  0.0578456  -0.165171
 H              3.11828    3.04373    1.44723            -0.08303 -0.0213745 -0.0317608
 H              4.02524    3.64339    1.15558            -0.220795 -0.00823626   0.0457212
 H             0.404142    4.73955    1.18887           0.0329542  -0.142624  -0.132513
 H              1.29145     4.1174    1.46737           -0.109698 -0.0314176   0.347705
 H              2.17963     4.7245    1.21758           -0.039666   0.102534 -0.0114902
 H              3.08063    4.13947     1.4674           -0.0717314 -0.00258483   0.0635343
 H              3.94707    4.74528    1.18061            0.0945935 -0.00320154    0.239884
 H             0.451241  -0.294977    2.04049          -0.0483282   0.237878  -0.114782
 H              1.30738   0.326469    2.36322            0.176371  -0.016788   0.183348
 H               2.1867  -0.274764    2.10366           0.0132464   0.115201   0.330932
 H              3.09453   0.309001    2.35068             0.161197 -0.00897558    0.127941
 H              3.95151  -0.267642     2.0277            0.277512 -0.0303515   0.190675
 H             0.396768   0.832605    2.03227             0.05085  -0.199018   0.214582
 H               1.2966    1.38986    2.37073           -0.132495  0.0990776 0.00160872
 H              2.19739   0.856857    2.07823           -0.092148   0.179455    0.10073
 H              3.10194    1.39344    2.39231           0.0769827  -0.151971  0.0550496
 H              4.01542   0.845497    2.01526           -0.142809   0.309909  -0.017705
 H             0.416556    1.92901    2.04973            0.147133  -0.142428 -0.0857564
 H              1.31277    2.47561    2.39931           -0.244621  -0.118335  0.0728631
 H              2.21918    1.94268    2.06528           0.0200186   0.042923   0.304767
 H              3.10796    2.48739    2.40195           -0.170639   0.129712  -0.134973
 H              3.99158    1.93757    2.05244           0.0418555    0.12758 -0.0314716
 H             0.417701    3.03734    2.07193           -0.109373   0.158419  -0.205952
 H              1.30633    3.55873    2.41304           0.0669579    0.10887  0.0398009
 H              2.19401    3.01819    2.09356          -0.0273111  0.0161099  0.0189768
 H              3.09534    3.57268     2.4019            0.253266  0.0606273 -0.0313126
 H              3.99957    3.05605    2.08544            0.150481  -0.209622   -0.19687
 H             0.382089    4.14985    2.10978           0.0787056   -0.14624 0.00940016
 H              1.33355    4.71447    2.35811          -0.0593514   0.148853  0.0632715
 H              2.19691    4.09872    2.12077           0.0622544  0.0679181   -0.18298
 H              3.04192    4.71446    2.40072          0.00560968  0.0475547  0.0435147
 H              3.97357    4.16252    2.11431           -0.181568   0.187071   0.059244
 H              0.38928   0.285138    2.97271           -0.336973 -0.0605381  0.0721468
 H              1.28883  -0.309743    3.24726           0.0544436 -0.0324676  -0.190469
 H              2.19055   0.286628    3.02107           -0.172827 -0.0974466   0.185703
 H               3.0681  -0.290011    3.25317          -0.0364511 -0.0555642  -0.177534
 H              4.00619   0.263427    2.99023           0.0921305  0.0557122  -0.274536
 H             0.414562    1.38011    3.00903          -0.0155888   0.152586  -0.138222
 H              1.29083    0.82908      3.315           0.0990944 -0.0296549  0.0311713
 H              2.18969     1.3756    3.01656           0.0412491  -0.137791    0.15629
 H              3.09249   0.803716    3.31341           0.0782091 -0.0446306   -0.18988
 H              4.00595    1.37132    3.00747           0.0196243   0.251093  0.0590566
 H              0.42853    2.50835    3.01633            0.056039  0.0203825   0.261096
 H              1.31407    1.91873    3.34221            0.131974  -0.188881  -0.167877
 H               2.2119    2.45188    3.04128            0.109884 -0.0416082  0.0899713
 H              3.10418    1.91602    3.35686           -0.145789 -0.0203488  0.0435442
 H              4.00516    2.47396    3.01165           -0.145628  0.0959462  -0.052062
 H             0.415966    3.59535    3.04711           0.0152486 -0.0850672  -0.050927
 H              1.31816    3.00998    3.36903           -0.167675   0.200831   0.118597
 H               2.2098    3.54115    3.05518            0.148127   -0.05063  0.0246763
 H              3.10554    3.02315    3.34659           0.0603097 -0.0121474 -0.0416246
 H              3.99418    3.61577    3.01926            0.119183   0.121648   0.176903
 H             0.499669    4.75643    3.07412            0.192623 -0.0956968  0.0291234
 H              1.32853    4.08862    3.32284          -0.0286177  0.0838823  -0.124419
 H              2.17956     4.6885    3.05004           0.0845244 -0.0420096  -0.271215
 H              3.08989    4.11522    3.31505          -0.0951232 -0.0184115  -0.141392
 H              3.89728    4.79007    3.04992           -0.146858  0.0226711  0.0589125
 H              0.37855  -0.272854    3.91249           -0.218463  -0.115875 -0.0187898
 H              1.30128   0.253202    4.22907           -0.208365  -0.257065  -0.136022
 H              2.16879  -0.327742    3.93235           -0.211254 -0.0473231   0.200124
 H              3.07621   0.228233    4.25805           -0.210887  0.0609335  -0.204579
 H              3.94152   -0.33314    3.94625          -0.0198186  -0.162398 0.00701243
 H             0.385854    0.83405    3.96056          -0.00885989   -0.198707   0.0179305
 H              1.31496    1.35234    4.27992          -0.0877822  0.0432186  -0.117732
 H               2.2053   0.808181    3.96338            0.020217 -0.0597362  0.0674839
 H              3.10205    1.33641    4.27227            0.130758   -0.24207    0.15863
 H              3.98539   0.779135    3.96967             0.14626  0.0442021  -0.123607
 H              0.40845    1.92101    3.97227           0.0384517 -0.0568679   0.220942
 H              1.30255    2.45202    4.30868           -0.129165  0.0774411 -0.0430543
 H              2.20376    1.91344    3.98862          -0.0208911  0.0914955  -0.249386
 H              3.11756     2.4475    4.32263           0.0146878 -0.0628228 -0.0410601
 H              4.01982    1.89373    3.97892          -0.0439001  -0.120815  0.0411975
 H             0.420176    3.03321    4.01789             0.18557   0.108135  0.0041743
 H              1.34349    3.55342    4.32298            0.125198 -0.0497495   -0.05968
 H              2.21677    3.01588    3.99352           -0.146681 -0.0721693   0.023571
 H              3.08391    3.56074    4.29773           0.0785556  0.0362966 -0.0491654
 H              4.01072    3.04417    3.97977           -0.140597   0.124767  -0.124437
 H             0.467847    4.16523    3.99117           0.0263764  -0.107921   0.116653
 H              1.45368    4.99379    3.90704            0.160574   0.183154  0.0181455
 H              2.22251    4.12419    3.98964           0.0180122 -0.0263327 -0.0820246
 H              2.92799    5.00736    3.88292            0.184231   0.194313 -0.0534737
 H              3.94043    4.20043    3.98887           -0.105186  -0.172492  0.0805873
