125

 H             0.727009  -0.719673   0.655487          -0.0773583  0.0782159  0.0161749
 H              1.29875   0.253009   0.447061            0.109429   0.157354  -0.180569
 H              2.14563  -0.584157   0.632987          -0.0233864  0.0191926  0.0386617
 H              3.04835   0.312527   0.444005           0.0364331  0.0133511   0.163976
 H              3.80802  -0.439361   0.363664           -0.163229  -0.158173   0.171492
 H             0.421207   0.850903  0.0898079           0.0155267   0.236343 -0.0804239
 H              1.28556    1.37478   0.481496          -0.0751625 -0.0192746 -0.0133309
 H              2.16209   0.828183   0.134919           -0.108225   0.247579 -0.0247332
 H              3.05933    1.40985   0.469282             0.16169   0.166077  -0.247439
 H              3.94856   0.833377   0.143755           -0.358932 -0.0223921   0.201416
 H             0.414686    1.95062   0.131098            -0.10918  0.0460741  -0.172344
 H              1.29269    2.50147   0.492443           0.0404922 0.00280177    0.13536
 H              2.16077     1.9588   0.130913            0.104853  0.0430576  0.0357527
 H              3.07168    2.50172    0.48986            0.354929 -0.0363066 -0.0141176
 H              3.95561    1.94928   0.152553             0.15166   0.108381   0.145685
 H             0.372694    3.08006   0.194379           0.0572267 -0.0935677 0.00320417
 H              1.28022    3.60667   0.510059            0.155988  -0.183627  -0.251079
 H              2.18702    3.06238   0.176795             0.150293   0.0146288 0.000838325
 H              3.11001    3.59932   0.515236           -0.0139048   0.0313961 -0.00615265
 H              4.01926    3.05844   0.192245          -0.0615724  0.0432982  0.0281733
 H             0.390062    4.18573   0.219159           -0.113904 -0.0821167  -0.229335
 H              1.31254    4.71365   0.519883            0.035624  -0.237261  0.0680965
 H              2.20778     4.1687   0.229258           0.0660176   0.235714 -0.0082656
 H              3.09313    4.72838   0.532778            -0.16104    0.22764  -0.103007
 H              3.99564    4.19814   0.233256            -0.29675 -0.0522009  -0.166191
 H             0.412177   0.276538    1.06622          -0.0988292   -0.04042   0.070782
 H              1.33573  -0.255031    1.40789           -0.150252  -0.109917  -0.170557
 H              2.20052   0.345528    1.11746           -0.124053  -0.192621  -0.111987
 H              3.08483  -0.279948    1.34716            0.046025  -0.179417   -0.10828
 H              3.99183   0.325779    1.12663           -0.116064 -0.0583907   -0.14724
 H             0.389244    1.39882    1.09864          -0.0317319 -0.0993227  0.0469103
 H              1.30321   0.852865    1.40929            0.109351  -0.223522  -0.116451
 H              2.18773    1.42065    1.10308          -0.0292601  -0.261002  -0.162739
 H              3.07907   0.847832    1.41364          -0.00150842  -0.0334638   -0.101517
 H              3.97195    1.40128    1.11896          -0.0549579    0.16427   0.222609
 H             0.403339    2.49939    1.12995          -0.0608192   0.167785 -0.0898204
 H              1.30264    1.94495    1.43702          -0.0849556  -0.322879  -0.101077
 H              2.18978     2.5056    1.12997          0.00682127 -0.0389862  0.0106284
 H              3.07765     1.9592    1.44105           -0.154605  -0.150528   0.333282
 H              3.98085    2.50426    1.12569            0.338645 -0.0601518   0.015695
 H             0.385152    3.62707    1.15573            0.322783   0.182234  0.0271176
 H              1.29499    3.04506    1.44981             -0.107241 -0.000219993    -0.241154
 H              2.20278    3.60615    1.15479           0.0679831  0.0767211  -0.107824
 H               3.0947    3.05996    1.46074           -0.0680608    0.013322 -0.00607155
 H              4.03232    3.60665    1.16373            -0.29262  0.0514589 -0.0993301
 H             0.446898    4.73038    1.18745           -0.321455  -0.233638   0.140322
 H              1.32162    4.14395    1.45633           -0.029083    0.06027  0.0211214
 H              2.20717    4.73566    1.19376            0.152141   0.318382 -0.0514841
 H              3.10933    4.13581    1.47265           -0.105943  -0.014265   0.126618
 H              4.01001     4.7442    1.20128          -0.0995744  -0.267608  -0.102874
 H             0.442785  -0.299374    2.02788          -0.0738096 -0.0792151 0.00730937
 H              1.31759   0.293938    2.34782           -0.154063 -0.0432557  0.0776145
 H              2.21261   -0.27609    2.04414            0.159298   0.157801   0.105519
 H              3.09712   0.284033    2.34668           0.0412002 -0.0274833   0.053935
 H              3.96089  -0.301179    2.02957            0.188359 -0.0651282  -0.181679
 H             0.410775   0.818232    2.03732           0.0832234   0.119973 -0.0614331
 H              1.29959    1.39898    2.37327          -0.00265791   0.0727868  -0.0543379
 H              2.20003   0.850877    2.06894           -0.122814 -0.0299478 -0.0603525
 H              3.07555    1.39724    2.38165          -0.0621456  -0.209278  0.0208419
 H              3.99717   0.869983    2.07038           -0.101119 -0.0974936 -0.0210135
 H             0.389174    1.92561    2.06246            0.129445  -0.232693 -0.0813177
 H              1.30275    2.47783    2.38184          -0.000662485   -0.0092893    0.0613232
 H              2.19294    1.93367    2.07003            0.025003   0.289975  -0.139907
 H              3.09632    2.48968    2.38979            0.0975001   0.0720137 -0.00420165
 H              3.99107    1.96085    2.07474          -0.0278895 -0.0988819  0.0188564
 H             0.388773    3.04898    2.08688           0.0730843  0.0246442   0.190857
 H              1.30587    3.55532     2.3889          -0.0856343  0.0823976  -0.134092
 H              2.20468     3.0323    2.08387           -0.134354   0.127239     0.1043
 H               3.1194     3.5769    2.40981          -0.0267509 -0.0909519   0.140692
 H              4.01471    3.03954    2.10441            0.126633 -0.0742752    0.20481
 H             0.421636    4.17912    2.14158           0.0505705 -0.0143277   0.192713
 H              1.34396    4.75173    2.37845           0.0727642  0.0851928  -0.119012
 H              2.21371    4.12462    2.10992             -0.111552   -0.0202913 -0.000383341
 H              3.10304      4.708    2.38227            0.349093  0.0116389  0.0559898
 H              4.01962    4.16486    2.12232           -0.108654  0.0428678 -0.0673904
 H             0.387412    0.27612    2.96958           0.0164546   0.177525 -0.0413846
 H               1.2926  -0.311392     3.2465           -0.162898  -0.080862  -0.134165
 H              2.20939   0.276748    2.98615          -0.0742792   0.119126   0.113443
 H              3.12516  -0.261559    3.31535           0.0925047   0.105442  0.0703369
 H              4.02139   0.263935    2.98611            0.114412  -0.188824  0.0550748
 H             0.389469     1.3515    3.00788           -0.151602   0.103092  -0.157075
 H              1.29518   0.810859    3.30892          -0.0120968  0.0277985    0.13506
 H              2.18686    1.37645    3.01408           0.0347806 -0.0351927 -0.0346391
 H              3.10308   0.834146    3.32819            0.207276   0.136677  -0.105245
 H              3.98999    1.38033    3.02774           0.0440926    0.10406  -0.110598
 H             0.388415    2.48051    3.02119          -0.0032144 -0.0915892  -0.181697
 H              1.30345    1.91936    3.32916           0.0659118  0.0208475 0.00179372
 H              2.20056    2.45798    3.01559           -0.146004  0.0570158 -0.0331993
 H              3.09565    1.92028    3.33382             0.11989 -0.0234999 -0.0885059
 H              3.99783    2.48874    3.04605           -0.075608   0.153169  0.0963055
 H              0.40189    3.60181    3.04619           -0.164862  -0.116209 -0.0919679
 H              1.30222     3.0105    3.33036           -0.179174  -0.057687   0.138484
 H              2.20938    3.55189    3.03109           0.0180189  -0.046227  -0.272747
 H              3.09932    2.99659    3.35059             0.14926  -0.266001  0.0160161
 H               4.0064     3.6078    3.06579            0.155449  -0.215196  0.0697824
 H              0.52295    4.77439     3.0956            0.165026   0.119204  0.0148564
 H              1.33659    4.09103    3.30215          -0.0514551  -0.126464 -0.0242862
 H              2.23494    4.70348     3.0512          -0.0652022 -0.0488156   0.148261
 H               3.0624    4.08082    3.32989           -0.198399 -0.0687975  0.0990417
 H              3.91022    4.75271    3.10964           -0.312785  0.0348349   0.133152
 H             0.404921   -0.31958    3.91922          -0.0478815    -0.1305   0.120045
 H              1.29214   0.241992    4.23836            0.206105   0.169106  0.0126068
 H              2.18812  -0.342033    3.90742            0.149159  0.0676765   0.146741
 H              3.07212   0.243285    4.29681           -0.010144   0.188174   0.120378
 H              3.99829  -0.264537    3.97753          0.00852405  -0.148352   0.207817
 H              0.39693   0.809244    3.95763            -0.10239  0.0159637  0.0438247
 H              1.29847    1.35223    4.28253           0.0273661   0.134117   0.118234
 H              2.19055   0.796443    3.96289           0.0157354  0.0826384 -0.0463425
 H              3.08419    1.35511    4.27835            0.172189   0.290159   -0.22813
 H              3.97982   0.816812     3.9789           0.0151112 -0.0612481 -0.0105099
 H             0.415502    1.89477    3.97824           -0.156307   0.113084   0.056652
 H              1.31979    2.46753     4.2876           0.0351582 -0.0686681  0.0911722
 H              2.21048    1.90278    3.97319            0.161536  0.0324468  -0.218326
 H               3.0983    2.44717    4.30154          0.00585211 -0.0398786 -0.0294672
 H              3.99561    1.91262    3.98365            0.165698   0.241729 -0.0524872
 H             0.426304    3.03335    3.98511          -0.0869888   -0.13508  0.0171754
 H              1.35735    3.55636    4.31764           0.0947484   0.197572 -0.0378435
 H               2.2003    2.99677    3.94739             0.220713   0.0719822 -0.00540483
 H              3.05405    3.54233    4.29428            0.026645  -0.089476    0.15168
 H               3.9845    3.03356    4.00937            0.120514  0.0262604  0.0855645
 H              0.48597    4.13639    3.99441          -0.0532361   0.132432  0.0663362
 H               1.4357    5.06853    3.71408          -0.0035278  -0.139255 -0.0598912
 H              2.18082    4.16412    3.99018           0.0195831   -0.20009   0.317047
 H              3.05554    4.98517    3.86032          -0.0470452 -0.0531826  0.0107396
 H              3.89588     4.1635    4.04833            0.103066 -0.0193301   0.188132
