125

 H             0.809213  -0.665703   0.579387           -0.126289   -0.12021   0.226498
 H               1.3463    0.31672   0.471929             0.17024 0.00471009  0.0227097
 H              2.13872  -0.588177   0.630396            -0.200483 -0.00803807   -0.111918
 H              3.04362   0.247903    0.42116          -0.0281922  0.0847935  0.0770308
 H              3.67486  -0.655604   0.570153           0.0322876   0.143407  -0.105345
 H             0.434054   0.845108   0.127624          -0.0852354  0.0758957  -0.033052
 H              1.29464    1.43041   0.467293           0.0404632    0.13068   0.282857
 H              2.18624   0.871557   0.134354           0.0998063  -0.051428   0.152924
 H              3.08038    1.42169   0.487741           -0.292081  -0.121658  0.0387322
 H              3.93044   0.835928   0.141709           0.0880896  -0.100317  0.0644659
 H             0.407345    1.96171   0.135521          -0.0436955  0.0111017  -0.126546
 H               1.2983    2.51889   0.486932            0.139682     0.3077   0.114536
 H              2.20109    1.99283   0.144465           0.0973922 -0.0846412 -0.0187789
 H              3.10203    2.51381   0.476745           -0.160732    0.23049 -0.0202399
 H              4.00742     1.9524    0.17487           0.0437257 -0.0599858   -0.17833
 H             0.418933    3.07263   0.149711          -0.0260923 -0.0574513  0.0052329
 H              1.30202    3.61758   0.494794           -0.0896139  -0.0473187 -0.00563782
 H              2.21343    3.08146   0.144415           0.0439602   0.106152 0.00695829
 H              3.10214    3.60871    0.50952           0.0626516 -0.0585525  -0.109117
 H              3.99952    3.07273    0.19513          -0.0516908   0.246342 -0.0767927
 H             0.415329    4.19967   0.205026          -0.00660429    0.140976   0.0198896
 H              1.34532     4.7354    0.53112            0.097826 -0.0729049   0.178649
 H              2.22003    4.18724   0.205217           0.0878677  -0.168473   -0.15681
 H               3.0586    4.74268   0.521936            0.148114 -0.0674137  -0.103755
 H              3.99465    4.21016   0.238722           -0.131126 -0.0404049   0.163255
 H             0.420384   0.264539    1.09636          -0.0965292   0.218612  0.0454354
 H              1.35793  -0.240906    1.40951            0.149201  -0.131307  -0.043995
 H              2.21545   0.342198    1.13464           0.0552359 -0.0572611    0.14733
 H              3.04414  -0.285188    1.42405           -0.0108126 -0.00201767   -0.138272
 H              3.95281   0.278289    1.08499            0.364518   -0.23328  -0.151768
 H             0.392878    1.39705    1.10003           -0.148198    0.10368  0.0186803
 H              1.30489    0.86246    1.42164            0.111961 -0.0107259  -0.171414
 H              2.18844    1.42486    1.08431          -0.0328651  0.0682732   0.189009
 H               3.1004   0.849589    1.41549            0.196474   -0.33019  -0.259646
 H              4.01746     1.3872    1.08894          -0.0391849   0.154508  -0.135404
 H             0.406763    2.50438    1.10426           -0.126935  0.0152385 0.00736656
 H              1.30634     1.9601    1.42777          -0.0554489  0.0374974  -0.317418
 H              2.22169    2.50548    1.10798          0.00908587 -0.0283502  0.0367454
 H              3.09271    1.94414    1.43273            0.177665 -0.0263041  0.0633974
 H              4.00256    2.47886    1.13707          -0.0442259   0.169294 -0.0130983
 H             0.390978    3.60245    1.12839           0.0460832  0.0915116 -0.0291172
 H              1.30647     3.0469    1.44701            0.154747  0.0177693  0.0483134
 H                2.204    3.60488    1.13414           0.0241582 -0.0928385  -0.152211
 H              3.10811    3.04811    1.42672          -0.0508102 -0.0279546   0.166617
 H               4.0025    3.62575    1.15442           0.0417369  -0.278669 -0.0393778
 H             0.453247    4.73099    1.16711           0.0231854  -0.172668 -0.0652335
 H              1.30983    4.12529    1.46241           0.0334545 -0.0413332 -0.0662486
 H              2.19351    4.71635    1.21247           0.0277443  0.0335891   0.298123
 H              3.09101    4.14344    1.47451          -0.0114087  0.0834472  -0.114425
 H              3.94679     4.7728    1.22761          -0.0107019   0.215256  -0.280837
 H             0.474564   -0.32358    2.07324            0.165425  0.0248906  0.0428027
 H              1.32021   0.315189     2.3604            0.0513939 -0.00187252   -0.107152
 H              2.19872  -0.257285    2.07686           0.0277176   0.155445   0.230068
 H              3.08681   0.315601    2.34617             0.10599  0.0466994  -0.178406
 H              3.93463  -0.307761    2.03774            0.189525 -0.0575735  0.0437686
 H             0.396133   0.824035    2.02846            0.126559  -0.108574  0.0849738
 H              1.29496    1.39786    2.36931            0.322292  0.0949868 -0.0804441
 H              2.19261   0.871814    2.05183          -0.00637602    0.266875    0.267152
 H              3.08849    1.40001    2.37275            0.301622 -0.0746887 -0.0406272
 H              4.00376   0.828921    2.03422            0.235179 0.00229839 -0.0488311
 H             0.396236    1.95258    2.04422           0.0963911 -0.0554629 0.00730831
 H              1.31808    2.49408    2.38651           -0.025504  -0.189544    0.15811
 H              2.20052    1.94172    2.04857          -0.0573204   0.208593 -0.0434799
 H              3.09246    2.49851    2.37306            0.343925  0.0240231 -0.0711397
 H              3.99611    1.92349    2.06496           0.0416338   0.134302  -0.107484
 H             0.376085    3.04843    2.08155           -0.314752  -0.159681   0.312395
 H              1.29109    3.56625    2.39195           0.0165168    0.17142  -0.189505
 H              2.20604     3.0288    2.07414          -0.0764023  0.0635425 -0.0543658
 H              3.09759     3.5692    2.39725            0.050201 -0.0251361 -0.0729463
 H              3.99078     3.0501    2.07086           -0.116506 -0.0806176 -0.0486787
 H             0.401728    4.13716    2.11574           0.0377168  -0.120431   -0.13316
 H              1.31083    4.69886    2.37382            0.110446  0.0288273  -0.159159
 H              2.18911     4.1281     2.1138            0.292327 -0.0947053   0.123128
 H              3.06463    4.70513    2.41668            0.198946 -0.0545619  0.0373007
 H               3.9776    4.16497    2.13512          -0.0862111  0.0612256 -0.0722983
 H             0.401548   0.288726    2.99021           -0.280782 -0.0740634 -0.0475808
 H              1.29393  -0.292827    3.25665           0.0957478  -0.157472  0.0580471
 H              2.18232   0.289223    3.00445           -0.116579  -0.189205  0.0069557
 H              3.07768  -0.285423    3.27373           -0.137386   -0.26585   0.158896
 H              3.99062    0.27042    2.97371          -0.0133813 -0.0308058 -0.0415014
 H             0.396388    1.39013    2.98414           -0.223864 -0.0546087  0.0233962
 H              1.30699   0.841577    3.31677           0.0797747  -0.201916  0.0320441
 H              2.19776    1.38731     2.9918          -0.0452967    0.24649  0.0548316
 H              3.09875   0.834022    3.31308           0.0252503  -0.177905  0.0924518
 H              4.01354    1.35996     2.9977          -0.0677525 0.00206105 -0.0191107
 H             0.412365    2.48222    3.02412           -0.304569   0.120641  0.0918029
 H              1.30833    1.92241    3.33388          -0.0410589 0.00279744  0.0198266
 H              2.21543    2.46815    3.01807           0.0836143   -0.30274 -0.0934131
 H               3.1092    1.90742    3.32907          -0.0227998   0.085643  -0.145966
 H              3.99391    2.47054    3.01836          -0.0673361  0.0758993  -0.135615
 H             0.383192    3.58915    3.05955          -0.0621756  -0.243468   0.240697
 H              1.29429    3.00728    3.35256           -0.198323  0.0863435  -0.120369
 H              2.19352    3.54419    3.03235           -0.017626  -0.133955   0.294847
 H              3.09382    2.99707     3.3471           -0.105268  -0.299093  0.0150693
 H              3.99298    3.57751    3.04021           -0.104273   -0.10361   0.180798
 H              0.46456     4.7092    3.06251           -0.258318 -0.0106101 -0.0459576
 H              1.31988    4.10378    3.32392           0.0317081   0.207121   0.295754
 H               2.1713    4.69884    3.06565            0.100427 -0.0665922   0.103162
 H              3.07912    4.08932    3.32822          -0.00263628  -0.0314912    0.180768
 H              3.94083    4.71979    3.07259           0.0512793  -0.146582  -0.106972
 H             0.429112  -0.303077    3.92092           -0.109248   0.230252  -0.221389
 H              1.30974   0.258281    4.25692           0.0649793   0.203991 -0.0185959
 H              2.19374  -0.315407    3.93411           -0.0904986 -0.00053991   0.0181666
 H              3.09962   0.257449    4.26135           -0.268712   0.225971  -0.235235
 H              4.01155  -0.296841    3.94088           0.0531901  0.0641821 -0.0374306
 H             0.409672   0.814564     3.9594          -0.0887103 -0.0207586   0.150028
 H              1.30127    1.36014    4.33352          -0.0048975 -0.0652281  0.0395371
 H              2.19419   0.819972     3.9592          -0.0428794   0.115449  -0.225825
 H               3.1027    1.36724    4.29117            0.246298   0.169309   0.077308
 H              3.97765   0.815372    3.94567           -0.192256  -0.144544  0.0883656
 H              0.37677     1.9239    3.95575           0.0263951  -0.140281  0.0718483
 H              1.31417    2.44232    4.29482          -0.00878222    0.209314    0.120311
 H              2.20487    1.91507    3.95045           -0.211212 -0.0697742   0.111077
 H               3.1169    2.46347    4.28602           0.0261075 -0.0657091 -0.0603512
 H              4.01305     1.9241    3.95693           -0.116524 -0.0864185 -0.0727769
 H             0.411637    3.03061    4.01358           -0.178309   0.137065   0.154633
 H              1.34726    3.57858    4.29475           -0.050453 -0.0522499  -0.168979
 H              2.19814    2.99485    3.98298           0.0757304  -0.183306 -0.0767063
 H              3.07033    3.54864    4.29952           0.0843186  0.0992575   0.172649
 H              4.00544    3.04053    3.99814           0.0877717   0.227714  0.0890283
 H             0.484401    4.15341    4.02337           -0.192486   0.133264  -0.131121
 H               1.4185    4.95835    3.92824            0.137626  -0.083657   0.104991
 H              2.21714     4.1341    3.98649           -0.238032   0.135577  0.0158474
 H              2.97795    4.99387    3.89463          -0.0504636    0.10435  -0.206243
 H              3.92626    4.16059     4.0312          -0.0864689   0.060234  -0.101297
