125

 H             0.887964  -0.628384    0.51284            0.168764  0.0540064   0.125574
 H              1.31945   0.342814   0.450136            0.310659  -0.047445 -0.0565154
 H              2.05686  -0.531482   0.546227           0.0405259 -0.0290706  -0.196396
 H              3.04872   0.288317   0.474328           0.0854966   0.187528 -0.0550603
 H              3.71476  -0.645012   0.586443           -0.111666 -0.0317573   0.155335
 H             0.396205   0.841844   0.124956           0.0543017  0.0566363 -0.0953503
 H               1.2931    1.42428    0.46512          -0.0674256  0.0169722   0.129192
 H              2.21026   0.886754   0.160657              0.0265  -0.165355   0.057658
 H              3.10033    1.39756   0.505886           -0.160792   0.101476  -0.252868
 H                3.976   0.834957   0.152365           0.0787066  -0.127355   0.202445
 H             0.407993    1.99395   0.129027           0.0354441  0.0893276   0.245197
 H              1.30158    2.51005   0.495366           0.0401259 -0.0267578   0.131952
 H              2.20882    1.96936   0.164861            0.128713  -0.117461   0.121703
 H              3.10473    2.51115   0.489948          -0.0156148   0.188347   0.101678
 H              3.97325     1.9468   0.148486          -0.0476116  -0.031648 -0.0855401
 H             0.388175    3.09164   0.174237           0.0794122 -0.0211283  0.0396233
 H              1.28989    3.60485   0.488121          -0.0618023   0.137713  0.0891813
 H              2.20621    3.06593   0.181401           -0.225891  0.0534808 0.00307991
 H              3.09855     3.6159   0.483608          -0.0193457  0.0722415   0.167477
 H              4.01539    3.06595   0.207764          0.00160157  0.0474697  -0.350881
 H             0.413679    4.17626   0.195105               0.1379 -0.00393408    0.116617
 H              1.31391    4.74415   0.533741          -0.0365746   0.105837  0.0767554
 H              2.19212     4.1548   0.190488           -0.079013   0.148592  0.0493819
 H               3.0938    4.74303   0.532504           -0.136567 -0.0224781  -0.168917
 H              4.00446    4.19638   0.215216            0.107013  0.0262659   0.305548
 H             0.417117   0.270883     1.0855           -0.201109 -0.0749708 -0.0101251
 H              1.34435  -0.244502    1.40621            0.171085 -0.0174173  0.0513222
 H               2.1891   0.342999    1.12332          -0.0548431   0.170047  0.0160036
 H              3.02215  -0.279948    1.40288           -0.126509 -0.0457108   0.113548
 H              3.95517   0.299687    1.12989          -0.0386501  -0.134884 -0.0729519
 H             0.387592    1.39568     1.0913          -0.0252497  0.0863263  0.0983162
 H              1.30732   0.862996    1.40363          -0.0247898 0.00749927  0.0350986
 H              2.18548    1.43066    1.10247           0.0119035  -0.114662 -0.0144981
 H              3.07257   0.863704    1.43695          -0.0282812 -0.0759228 -0.0833885
 H              3.99658    1.39956    1.12733          -0.00294806  -0.0507035   0.0151502
 H             0.398139    2.50685     1.1163          -0.0170868 -0.0769107 -0.0417898
 H              1.28779    1.94522    1.43081          -0.0419344  -0.291051 -0.0107538
 H              2.18226    2.50905    1.12116          -0.0119732  0.0866378    -0.2682
 H              3.08461    1.95325    1.43475           -0.153012 -0.0297938   0.093234
 H              4.00572    2.49585    1.14421          -0.0674075   0.123927  -0.129143
 H             0.397856    3.62563    1.14444          -0.0615688   0.031278   0.109146
 H              1.28292    3.04827    1.44129           0.0243363  -0.013361 -0.0638674
 H              2.19823    3.59086    1.15317          -0.0045443   -0.10443  0.0913294
 H              3.11231    3.04668    1.44443            0.120079  -0.021009 -0.0914665
 H               4.0067    3.62021    1.15899           -0.055177 -0.0677771     -0.069
 H             0.433845    4.72683    1.19104           0.0204607  0.0229827  0.0949938
 H                1.303    4.13705    1.45937             0.01733 -0.0725558   0.153417
 H              2.19464    4.70768    1.18045           0.0781353 -0.0939757 -0.0235171
 H              3.08611    4.12837    1.46401            0.130277  -0.192383 -0.0645772
 H              3.94587    4.75604    1.20825           -0.167896   0.230554  0.0600723
 H             0.463438  -0.305549    2.03489           -0.389163   0.116508 0.00988079
 H              1.30227   0.307332    2.35815             0.04934   -0.12879   0.196824
 H              2.19781  -0.290723    2.05598           0.0768356   0.102372  0.0492519
 H              3.07617   0.286471     2.3468            0.118742  -0.367996  0.0104855
 H              3.93329  -0.330111    2.04942           -0.202514  0.0816982 -0.0508805
 H             0.385718   0.825615    2.02549           0.0178504  -0.021192 -0.0164857
 H              1.27943    1.38023    2.35938           0.0127057 -0.0368845  0.0413054
 H              2.19373   0.850729    2.04991          -0.0634377  -0.167652  0.0929979
 H               3.0855    1.40583    2.38582          -0.0978347    -0.3128 -0.0804098
 H              3.98816   0.814549    2.07692           0.0801003  0.0268331   -0.14024
 H             0.385298    1.94648    2.07171             0.40757   0.181184  0.0717911
 H              1.30295    2.48325     2.3919            0.119194  0.0831367  -0.154386
 H               2.1881    1.94118    2.06622            0.184711   0.037643 -0.0231509
 H               3.1048    2.49666    2.39011            0.204745  -0.127302  -0.228791
 H              3.98645    1.93957    2.06958            0.303004  0.0797982  0.0121895
 H             0.394975    3.04463    2.10857          -0.0351904    0.13935  0.0555312
 H               1.3185    3.56492    2.38064           0.0425898   0.100294  -0.186009
 H              2.19257    3.02516     2.0795           0.0852791 -0.0748418  0.0500513
 H              3.08314    3.56556    2.39329           -0.112142  -0.383422  -0.135758
 H              3.99919    3.04679    2.09098          -0.0773428  -0.130165  0.0816477
 H             0.409101    4.12838    2.10828           -0.170206   0.217756  -0.510772
 H              1.34514    4.69905    2.39316           -0.108993 -0.0730816  0.0364874
 H              2.20393    4.12831    2.11142          -0.00167678   -0.123742   -0.208372
 H              3.05786    4.70428    2.39996           0.0234519   0.011453 -0.0155676
 H              3.98738     4.1473    2.13227            0.158692  0.0436354   0.010978
 H             0.394776   0.261256    2.98079          -0.0519081  0.0398585  0.0523654
 H              1.31547  -0.307479    3.26586           0.0308129  0.0958836 -0.0280602
 H              2.20712    0.29353    2.97072           -0.213467   0.159279 -0.0555563
 H              3.09914  -0.289465    3.26757           -0.143245 -0.0712249 -0.0560265
 H              4.01326   0.243019    3.00204            0.222155   0.107648   0.119102
 H             0.391918    1.36427    3.01172          -0.0700264  -0.117687  0.0184399
 H               1.3105   0.831704    3.31567          -0.0367654  -0.176917  -0.130743
 H               2.2049    1.37688    3.00463          -0.0644951   0.186083 -0.0695007
 H              3.09915   0.819063    3.29156          -0.0585064   0.158471 -0.0241813
 H              4.03261    1.37434    3.01508           -0.211227   0.069967  -0.144279
 H             0.404893    2.48394    3.04371           -0.0180254  -0.0420439 -0.00457638
 H              1.30763    1.90212    3.34541           0.0773929 -0.0705648    0.13124
 H              2.21422    2.47448    3.01823           0.0666061  -0.180817   0.150708
 H              3.09746    1.91697    3.32107           0.0790803 -0.0580002  -0.124684
 H              4.02026    2.48586    3.01922          -0.0189923   0.279139  0.0695672
 H             0.395059    3.58359     3.0677           -0.222913  0.0428693 0.00801728
 H              1.31655    2.99571     3.3419            0.060923  0.0136514   -0.19173
 H              2.20237    3.55268     3.0246            0.064464  0.0643809   0.169475
 H                3.104    3.00721    3.34352           -0.240273 -0.0221846  -0.077159
 H              4.00939    3.58861    3.04945            0.053868  -0.122631  0.0135519
 H             0.485801    4.73486    3.07018           -0.194124  -0.152606   0.080995
 H              1.31663    4.06635    3.32036            0.110323  -0.189896  0.0513926
 H               2.2083    4.66539    3.06908             0.173344   -0.121578 -0.00992566
 H              3.09482    4.09908    3.33279            0.132243   0.101204 -0.0767062
 H              3.93981    4.74432    3.08665           0.0388132  0.0868124   0.130915
 H              0.42385  -0.328555    3.91455          0.00138719   0.138129  -0.151191
 H              1.32835    0.23767    4.24303            0.250261  -0.163725  -0.290865
 H              2.20354  -0.299727    3.91679            0.167595  0.0641812   0.179925
 H              3.08202   0.259288     4.2504          -0.0122244   0.298155 -0.0771429
 H              3.97512  -0.315645    3.94454          -0.0491353 -0.0833097   0.131797
 H             0.417306   0.798466    3.95417           -0.055102  -0.240272  -0.109409
 H              1.32036    1.34596    4.29743           -0.077177 0.00515638   0.180547
 H              2.21255   0.827146    3.92207          -0.0295778  0.0974107  0.0745607
 H              3.11273    1.35666     4.2604           -0.145426 -0.0642271 -0.0929742
 H              3.99759   0.807713    3.97336            0.131836  0.0132232   0.262589
 H             0.404147    1.91659    3.96379          -0.0468242    0.19918  -0.327138
 H              1.32179    2.45235    4.32204            0.123813   0.031877   0.115353
 H              2.21114    1.91856    3.96431          -0.0692834  0.0663191  -0.255643
 H               3.0925    2.44676     4.3031            0.413585 -0.0398256  0.0901804
 H              3.99846    1.93578    3.97271          -0.0386145  0.0374694  -0.116394
 H             0.433945    3.04659    4.02382          -0.0128015   0.180727  0.0393295
 H              1.34685    3.55721    4.31885           0.0149761   0.129913   0.209203
 H              2.20523    3.01266    3.96363          -0.0844312  0.0243577   0.239869
 H              3.05905    3.56465    4.32088          -0.0313053 -0.0025846  0.0677575
 H              3.99769    3.07283    4.00143           -0.186931   0.021664  0.0744594
 H             0.495471    4.19495    4.02008           -0.247003  -0.265031  0.0824748
 H              1.39762    5.00665    3.78993          0.00365939   0.354607 -0.0485843
 H              2.20001    4.14753    3.98784           0.00551432 -0.00397234    -0.16299
 H              2.97254    5.02744    3.82259           0.0305109 -0.0868034  0.0223632
 H               3.9256    4.19487    4.02741           -0.0731556 -0.00874565   0.0454618
