125

 H             0.846185  -0.639037   0.503375           0.0353306  0.0572642  0.0520275
 H              1.31334   0.322741   0.442633          0.00301503  -0.107543   -0.15124
 H              2.07202  -0.508484   0.560856            0.139191 -0.0558246 -0.0430685
 H              3.08026   0.299255   0.467462            0.147913  -0.103884  0.0616879
 H              3.66252  -0.631023   0.557132           0.0549837 0.00846237  0.0199784
 H             0.414616   0.868424   0.127373          -0.0932705   0.014378  -0.022632
 H              1.30777    1.40111   0.470804           0.0837578  -0.112269  -0.184043
 H              2.21008   0.867112    0.16467           -0.287046   0.288329  -0.295104
 H              3.09983    1.39329    0.47138          -0.0679624 -0.0765155  0.0411051
 H              3.99803   0.803301   0.169827           0.0273053   -0.14885   0.204443
 H              0.41949    1.97185   0.164382          -0.0564068   0.124946   0.164408
 H              1.29422    2.51363    0.49034          -0.0166686  0.0277817  0.0484311
 H              2.20896    1.97376   0.125344           0.0281545   0.198125  0.0702217
 H              3.09221    2.52144   0.478576           0.0668341  -0.116318  0.0275116
 H              3.97279    1.92889   0.146954           0.0328446   0.161395   0.109983
 H             0.403572    3.08317   0.159457           0.0836316  -0.170569  0.0105424
 H               1.2928     3.6233   0.521425            0.124732 -0.0921963   0.228815
 H              2.19299    3.06692   0.176209           0.0636002  0.0162738  -0.124496
 H               3.1107    3.61505   0.500435           -0.282996   0.183214 -0.0808448
 H               4.0104    3.07746    0.17769           -0.206689  -0.115887   0.137986
 H             0.397227    4.18592   0.232991          -0.0176917 0.00443988 -0.0139326
 H              1.31565    4.73761   0.530715          -0.0783781   0.163444  -0.179387
 H              2.20321    4.19291   0.206278           -0.163131   0.221562  -0.159723
 H              3.08477    4.74378   0.533012           0.0705421   0.061448  -0.100486
 H              3.97415    4.22234   0.224057            0.100288  -0.187606 -0.0527898
 H             0.434759    0.28301    1.07696           0.0635409  -0.173668  0.0717249
 H              1.33708  -0.255893    1.41457          -0.0312531   0.203624  0.0357598
 H               2.2029   0.352749    1.14095           -0.107563  -0.215419  -0.024818
 H              3.07156   -0.26507     1.4232          -0.0607378   0.145638   0.153712
 H              3.96771   0.290719    1.13996           -0.103824  -0.194313   0.106126
 H             0.403659    1.39025    1.11289           -0.269389 -0.0184032  0.0422485
 H              1.30811   0.845415    1.42247           -0.231963 -0.0381824  0.0094614
 H              2.19435    1.41559    1.11634            0.171959  -0.145031  -0.119591
 H              3.07859    0.86793    1.42786          -0.000992226   -0.0578207    0.0888567
 H              4.00909    1.40288     1.1254           0.0240426  0.0529199 -0.0287873
 H             0.400316    2.49767    1.12477            -0.21804   0.195886  0.0256177
 H              1.29633    1.94691    1.43122          -0.00381287   -0.234299   0.0210218
 H              2.20174     2.4911    1.11326           -0.137679  -0.149553  0.0364904
 H              3.10495    1.95194     1.4152            0.112533  -0.145717  -0.148683
 H              3.98768    2.52228     1.1048          -0.0256912  0.0883344  0.0609711
 H             0.394698    3.59983    1.15461            0.116829 0.00103259  0.0212213
 H              1.29881    3.02567    1.44327          -0.0565069  0.0199146   0.220168
 H              2.20565    3.58881    1.13158            0.177884 -0.0349994  0.0485787
 H              3.10973    3.05031    1.43885          -0.0493617  -0.128776  -0.122967
 H              4.01663    3.63343    1.13961          -0.0183005  0.0298964  0.0416851
 H             0.423464    4.72623    1.17954            0.297196   0.117697    0.11999
 H              1.31443    4.11218    1.48583          -0.0833513  0.0867339  -0.186555
 H               2.2147     4.7134    1.18922           0.0861433 -0.0494322  -0.102999
 H              3.10569    4.13411    1.45839          -0.0575675 0.00147813 -0.0499189
 H              3.96635    4.75809     1.2208          -0.00944539   -0.144348   0.0271472
 H             0.448235  -0.278308    2.03461          -0.00575184   -0.163057   -0.111269
 H              1.30757   0.293621    2.36372           -0.085191 -0.0762669 -0.0559107
 H              2.19761  -0.286682    2.08269          -0.00681379 -0.00769744   0.0774073
 H              3.08358   0.312256    2.34126          -0.0186872  0.0326708 -0.0289136
 H              3.91508  -0.309218    2.09895          -0.0135883  0.0644522   -0.19923
 H             0.412919   0.817805    2.04436            0.293385 -0.0579227  0.0831047
 H              1.29711    1.39587    2.38747          -0.0829741  0.0663941 -0.0202064
 H              2.18723   0.856895    2.06671             0.09026 -0.0189791  0.0054713
 H              3.09885     1.4027    2.36546            0.218475   0.220016  -0.223404
 H              4.01038   0.828398    2.05724          -0.0521872  0.0409334  0.0873411
 H              0.41159    1.94696    2.07044           -0.223446  -0.121627   0.174571
 H              1.31535    2.48098    2.40264           -0.277043  0.0468166  -0.242831
 H              2.20732    1.94079    2.06492           -0.122541   0.305056  0.0646352
 H              3.10453    2.48815    2.37547           -0.224181   0.112789   0.256669
 H              4.01823    1.94357    2.07669            0.239778  0.0819334  -0.148961
 H             0.434967    3.03228    2.08619            0.123524   0.219843 -0.0207432
 H              1.31109    3.55098    2.40885           0.0367205 0.00464997   0.201834
 H              2.20908    3.02859    2.06057            0.101759   0.101058 -0.0950512
 H              3.09466    3.57366    2.38343          -0.0190165 -0.0796112  0.0490262
 H              4.01108    3.04505    2.08785             0.20286 -0.0860196  0.0120999
 H              0.41996    4.13656    2.10834          -0.0426604 -0.0950317  -0.102517
 H              1.32939    4.70021    2.39076            0.103033    0.20263   0.111346
 H              2.19064    4.12845    2.10236          -0.0388382  0.0534069   0.259377
 H              3.05863    4.70515    2.39033          -0.0849605   0.100683  -0.159123
 H              3.98173    4.13936    2.12471            0.045723  0.0300876  -0.095117
 H              0.40781   0.262775    2.99547           0.0973568  -0.114706 -0.0460794
 H              1.29884  -0.322497    3.25981           0.0197467  -0.109617  -0.212868
 H               2.1823   0.288306    2.99454          -0.0796691   0.061635  0.0870318
 H              3.07482  -0.318884    3.19741            0.176453   0.112444    0.01663
 H              3.99566   0.262125    2.98958            0.0229315    0.138685 -0.00830868
 H             0.378477    1.37214    3.00906            0.181595 -0.0716095   0.201056
 H              1.29614   0.840398    3.31765           -0.0106844    0.139795 -0.00926643
 H              2.20828    1.38024     2.9948            0.128552  0.0131222   -0.06174
 H              3.09922   0.806223    3.31068           -0.096359   0.152478  -0.139039
 H              3.98136    1.38699     3.0149            0.124057  -0.093855   0.172858
 H             0.410899    2.47817    3.03316            0.149757  0.0277104 -0.0633486
 H              1.32907    1.91711    3.34971           0.0708012   0.363368   0.234517
 H              2.20802    2.48203    3.00236            -0.06155 -0.0427666 -0.0768452
 H              3.10221    1.93091    3.32585             0.0306743 -0.000512215    0.0248969
 H               4.0071    2.47732    3.03094          -0.0761187    -0.0217  -0.126431
 H              0.38757    3.58941    3.05318            0.195025  -0.069675 -0.0870123
 H              1.31044    3.00013    3.36124           0.0628445  -0.143111  0.0586999
 H              2.21149    3.56028    3.02293            0.116231  -0.128124  -0.170348
 H              3.09853    3.00732    3.33612           -0.133828 -0.0658461 -0.0585364
 H              3.97879    3.59302    3.05149          -0.00843985     0.10546    0.122783
 H             0.458957    4.69849    3.06799           0.0521024 -0.0999986  -0.208095
 H              1.32545    4.07408    3.32382           0.0557486    0.24487  -0.144697
 H              2.20923    4.72082    3.03718          -0.0778076  -0.215788 -0.0756947
 H              3.07726    4.09921    3.33879           -0.109303  -0.157427  0.0487846
 H              3.90501    4.75437    3.05727           -0.117071  -0.243299   0.150812
 H             0.395095  -0.308393    3.95573           -0.258052  -0.159515  -0.216294
 H              1.29019   0.219799    4.25106            0.226565 -0.0142368 -0.0712933
 H               2.2112  -0.311702    3.90179           0.0449219  0.0171967   0.166435
 H              3.09596   0.233948    4.24387            0.255808  -0.115148    0.17367
 H              3.96165  -0.348909    3.90135          -0.0166429  0.0335679  0.0213161
 H             0.392112   0.788892    3.97185           -0.050109    0.27201 -0.0806049
 H               1.3099      1.357    4.28889          0.00324824  0.0625571   0.130753
 H              2.17256     0.8029    3.95329          -0.0633099  -0.156808   0.060474
 H              3.08569    1.34689     4.2776           0.0624955 0.00375049  -0.174347
 H              4.01928   0.794652    3.95135           0.0820363    0.23646  0.0367432
 H             0.392434    1.91609    3.96346           -0.036899  -0.187862 -0.0298313
 H              1.31499    2.45868     4.3225            0.101237  0.0053191   0.209827
 H              2.22044    1.91644    3.95332          -0.0873861   0.265801  -0.179701
 H              3.09832    2.47248     4.2986           -0.101492   0.199762 -0.0955544
 H               3.9889    1.90514     3.9833           -0.160632  -0.153473 0.00909629
 H             0.407194    3.01864    4.01764            0.165666  0.0647416   0.116714
 H               1.3256    3.57782    4.31036            0.273673 -0.0666576  -0.227835
 H              2.20967    3.03041    3.96725          -0.0933812 -0.0758278 -0.0315942
 H              3.07823    3.60318    4.30115           0.0405749  -0.159403   0.136622
 H               3.9767    3.03268    3.99745          -0.0773582  -0.167666  0.0294088
 H             0.476039    4.18045    4.02364           0.0261375   0.115058 -0.0629397
 H              1.38634     5.0146     3.7804          -0.0642834   0.109489   0.179009
 H              2.19198    4.17492    3.99307           -0.157625  0.0535704   0.156224
 H              3.00709    4.98591     3.8951            -0.15107  -0.187807  0.0243358
 H              3.96598    4.20864     4.0091           -0.211339  -0.210408  0.0941456
