125

 H             0.810219  -0.681557   0.545899           0.0270692  0.0955164     0.1887
 H                 1.33    0.28444   0.459822           0.0195512  -0.169261   0.285937
 H              2.09524   -0.58869   0.638597            0.111021   0.129307  0.0576299
 H              3.07999     0.2888   0.465961           -0.151772  0.0571187 -0.0304458
 H              3.71658  -0.619576   0.568561            0.115212  0.0499861 -0.0274202
 H             0.430894   0.837724   0.146843            0.157675 -0.0203856  -0.161429
 H              1.30904     1.4148    0.45392            0.071577  -0.143598   0.256161
 H              2.19803    0.84468   0.146606           0.0144148   0.206828 -0.0455581
 H              3.08522    1.40527   0.467181           0.0299613    0.12165    0.12759
 H              3.98789   0.848218   0.126765          -0.0485909   0.181222  0.0668249
 H             0.424534    1.95623   0.126532          -0.000697687   -0.0398468   -0.0457775
 H              1.30586    2.52425    0.49148           0.0415362   0.231699  -0.224482
 H              2.21629    1.97226   0.143173           -0.0724298   0.0624332 -0.00759857
 H              3.09557    2.52045   0.499345           -0.287557  -0.222238   0.108347
 H              3.97863    1.97578   0.121051           -0.064381 0.00211322  -0.107685
 H             0.407106    3.05834   0.177774           0.0210066 -0.0598039   0.199946
 H              1.29402    3.61853   0.501369           0.0135644 -0.0603416   -0.15808
 H              2.18401    3.07092   0.143771            -0.27792   0.118819 -0.0337196
 H              3.08488    3.62244   0.496084           0.0758318  0.0838553   0.100266
 H              4.00809    3.09238   0.165702          -0.0442238  0.0922219  0.0322381
 H             0.387501    4.19457   0.226695          -0.0668612  0.0483357 -0.0775218
 H              1.31811     4.7244   0.574739              0.2355   0.224896   0.145353
 H              2.20712    4.17095    0.20162          -0.0277521  -0.294413  0.0869319
 H              3.07408    4.74852   0.571643           0.0242475   -0.01331 -0.0185735
 H              3.95551    4.22727   0.199276            0.115066  -0.369126  0.0144184
 H             0.418793    0.25886    1.06908          -0.0436628  -0.188354  -0.157405
 H              1.33582  -0.260395    1.40424          -0.0627994  0.0622075 0.00268559
 H              2.20239   0.337185    1.11815          -0.0747159  -0.183145  -0.158796
 H              3.06092  -0.289478    1.38883            0.296255   0.293566  -0.134556
 H              3.98112   0.308486    1.10087           -0.014161 -0.0394549   0.195169
 H             0.391172    1.41019    1.07408           0.0388041    -0.1315  -0.120658
 H              1.29803   0.874972    1.39866           0.0107606   0.126883 -0.0818856
 H              2.20392    1.42141    1.10442           -0.112701  -0.212695  -0.157827
 H              3.09921    0.86377    1.41986           -0.154374   0.085077  -0.031583
 H              4.01143     1.4157    1.06659          -0.0472063 0.00487288  -0.337949
 H             0.411786    2.50196     1.1226           0.0770958 0.00296289   0.218174
 H              1.29723    1.95328    1.42433            0.099037   0.261012  0.0522247
 H              2.19982    2.52769    1.12393           -0.274357  -0.087768  -0.120331
 H               3.1017    1.95596    1.43833            0.127682  0.0372079  -0.230045
 H              4.00494    2.52627     1.1208            -0.23514   0.123514   0.256131
 H             0.403628    3.59776    1.14033            0.253665  0.0327264   0.135595
 H              1.30943    3.05231    1.44655             -0.1632  -0.305457 -0.0963119
 H               2.2161    3.61236    1.15081          -0.0765546  0.0134232 -0.0843325
 H              3.10269    3.04456    1.45429            0.101741   0.274876 -0.0889487
 H              3.99582    3.63161    1.14209           0.0475897  0.0247433  0.0392049
 H             0.434601    4.75076    1.20805           -0.144704   0.109093 -0.0107565
 H               1.3039    4.11679    1.47638           0.0405671 -0.0307833 -0.0158483
 H              2.19982    4.70977    1.21208            0.167995   0.199006   0.262735
 H              3.08861    4.13429    1.46893          -0.0489904  -0.236193  -0.208885
 H              3.97976    4.74501     1.1969            0.0952894 -0.00233359   -0.076448
 H             0.453508  -0.318381    2.05458            0.151109  -0.033001   0.080282
 H              1.31348   0.309123    2.35495           0.0361688  0.0603576   0.149264
 H              2.19326  -0.278198    2.07268          -0.0193139  -0.192805  -0.136587
 H              3.08117   0.296344    2.34132           0.0957127   0.166373  -0.101854
 H              3.94387  -0.282668    2.04367           0.0221991  -0.143679   0.199173
 H             0.405766   0.806559    2.01804           -0.102933  0.0459432  0.0829082
 H              1.28607    1.39446    2.37196          -0.0173662 -0.0765139  0.0303759
 H              2.18606   0.861894    2.04683            -0.10334  -0.155462  -0.144023
 H              3.08278    1.38694    2.39186           -0.149636  0.0958443 -0.0429373
 H              3.99693   0.866459    2.05191           0.0343873   0.114405  -0.302126
 H             0.390909    1.92732    2.07994           0.0985563  0.0559124  0.0263714
 H              1.30775    2.47298    2.36887            -0.066077 0.000980539    -0.12727
 H              2.20403    1.94274    2.04752            0.208476   0.163189  0.0547519
 H              3.08502    2.46467    2.39939            0.230314 -0.0935103  -0.140168
 H              4.00378    1.94503    2.07083          -0.00146652   0.0323765   0.0767989
 H              0.40508      3.036    2.07172            0.298867  0.0643789   0.211043
 H               1.2965    3.56667    2.39096           -0.134239 0.00538301  -0.119981
 H              2.19896    3.03014     2.0789           0.0414434  -0.102254 -0.0201158
 H              3.10665    3.55877    2.39839           -0.113388  0.0723676  0.0362765
 H              4.00321    3.03794    2.10024          -0.0236192  -0.188905   0.338971
 H             0.414826    4.13505    2.10907            0.300919   0.221353  -0.170263
 H              1.34209    4.70936    2.38345           -0.181421  -0.119756 -0.0264961
 H              2.19322    4.12565    2.11388             0.15467  0.0731522 -0.0709597
 H              3.08938    4.71017    2.38828           -0.148221    0.15285    0.18616
 H              3.99908    4.14011    2.12178          -0.0171597 -0.0111077   -0.12574
 H             0.380528   0.279369    3.00406            0.154749   0.131565   0.147584
 H               1.3101  -0.283009    3.25724          -0.0835312 -0.0770693  0.0891871
 H               2.1962   0.296415     3.0032           -0.308168  -0.135918  -0.162061
 H              3.07292  -0.294219    3.24799           0.0614067   0.084924 0.00234367
 H               3.9909   0.292479    2.96603           -0.106071 -0.0856493   0.319687
 H             0.379605     1.3746    3.00817           0.0920576  -0.166624  -0.286033
 H              1.29416   0.828537    3.33488            -0.10662 -0.0255843   0.212178
 H              2.19102    1.36734    3.01414          -0.0356251  0.0861353  -0.241524
 H              3.08443    0.81484    3.33577            0.0135266 -0.00904008    0.112466
 H              4.00062    1.38914    3.02725           -0.195784 -0.0773218  0.0427684
 H             0.416945    2.47789    3.04717           -0.119526  0.0959446  0.0278407
 H              1.30454    1.91993    3.31974            0.178973 -0.0315867 -0.0996622
 H              2.20455    2.45177    3.02248          -0.0282398  -0.218588  -0.169921
 H              3.08399    1.90308    3.35882          -0.0277441  0.0545167 -0.0265139
 H              3.96544    2.46531    3.04466          -0.00893765    0.356648   -0.287626
 H             0.417266    3.58651    3.04858          -0.0453855  -0.104354 0.00183553
 H              1.30423    2.98754    3.32785            0.273865  0.0337397 -0.0387125
 H              2.19571    3.55344    3.01743          -0.00786423    0.018869   -0.207996
 H              3.08934    3.00012    3.34914          -0.0288096     0.2004  -0.099809
 H              3.99756    3.57694    3.07245           0.0205543  -0.208096 0.00743904
 H              0.48528    4.73759    3.05245            0.046714 -0.0448938  0.0253106
 H              1.32639    4.08842    3.31599           -0.177309  -0.178106   0.170771
 H               2.2024    4.72052    3.05245           0.0317116 -0.0112788 -0.0453735
 H              3.07871     4.0843    3.32566          0.00909297 -0.0396136  0.0930377
 H              3.94186    4.70531    3.08394           -0.087578 -0.0260438  0.0847088
 H              0.42075  -0.318903    3.90846           0.0434419  0.0801524  0.0262769
 H              1.29247   0.249335    4.25633            -0.16482  -0.129781  0.0994876
 H              2.18997  -0.314728    3.91258          -0.0528226  0.0713893   0.178143
 H              3.09702    0.23303    4.24745           -0.217935 0.00503307  0.0382135
 H              3.99458  -0.280169    3.90794           -0.132106  -0.025997 -0.0592503
 H              0.38757   0.800952    3.98397            0.163647  0.0608554 0.00501048
 H              1.30163     1.3715    4.29593           0.0347504   -0.16464   0.121069
 H              2.17473   0.799825    3.98425           0.0663323   0.114659  0.0785766
 H              3.08178    1.34569    4.29874            -0.10223  0.0433217   0.299736
 H              3.99992   0.822043    3.96194           0.0752576  0.0542666   0.246102
 H             0.407207    1.92912    3.98186            0.197993 -0.0029947   0.012632
 H              1.30168    2.46557    4.29594           0.0201165 -0.0258083  -0.164097
 H              2.18358    1.91348    3.98497            0.228177 -0.0135479  -0.146455
 H              3.07345    2.44741    4.31238            -0.230776   0.0265885 -0.00903221
 H              4.00343    1.91732    4.00614           0.0102548 -0.0916701 -0.0679347
 H             0.441206    3.04719    3.99342            -0.13459 -0.0542293   0.151287
 H              1.35195    3.57676    4.29847            0.170093  -0.140271  -0.198761
 H              2.20314     3.0179    3.95155          0.00250634   0.222775   0.144382
 H              3.06821    3.56467    4.30158            0.047719 -0.0659338 -0.0641333
 H              4.00187    3.02288     4.0011          -0.0354589 -0.0253672  -0.204105
 H             0.490192    4.18373    4.02036           0.0124164 -0.0606222 -0.0182279
 H              1.43506    4.98356      3.875           -0.143374  0.0682917  0.0855342
 H              2.20021    4.15853    3.97382           0.0719133  -0.359006  0.0102385
 H              3.01308    5.03722    3.77811           0.0319188   0.121816 -0.0963203
 H              3.95021    4.14433    4.02756          -0.0074868 -0.0872944   0.134448
