125

 H             0.824351  -0.666704    0.54211           -0.094929   0.115363  0.0138766
 H              1.32466   0.305911   0.466676           0.0670003   0.155259  -0.109583
 H              2.05181  -0.596152    0.61409           -0.179039  0.0501275 -0.0587807
 H              3.06696   0.294445   0.455854           0.0829284  -0.176712  -0.136935
 H              3.66978  -0.632076   0.564322          -0.0275511    0.23143 -0.0470546
 H             0.430926   0.851201   0.140189          -0.0294872 -0.0789458  -0.168022
 H              1.30353    1.40943   0.475041            0.299261 0.00682471 -0.0380231
 H               2.1785   0.860053   0.126074           0.0816149   0.251219   0.165335
 H              3.08323    1.40077   0.469897            0.145826   -0.20081  0.0109551
 H              3.97326   0.836072   0.135069           0.0311926   -0.03032  -0.163066
 H             0.386103    1.96047   0.128729            0.180948 -0.0783353 -0.0176889
 H              1.29762    2.49592   0.496915          -0.0372063  -0.279052    0.31902
 H              2.18416    1.95436   0.128939            0.131776  0.0179088  -0.158894
 H              3.08243    2.49391    0.47028           -0.120232  0.0106234  -0.198943
 H              3.98846    1.96169   0.152574          0.000483121    0.113633    0.418884
 H             0.417749    3.08537   0.157032             0.18323  -0.165288   -0.14816
 H              1.30661    3.61383     0.5091           0.0163171   0.189251   0.123291
 H              2.18116    3.05209   0.173143            0.182524    0.15026   0.298722
 H              3.09852    3.59724   0.502549           -0.250508   0.257492   0.037997
 H              4.00201    3.07943   0.173767           0.0066369  -0.238965   0.164778
 H             0.413802    4.21197   0.220878          0.00906795  -0.135877  0.0170952
 H               1.3195    4.74576   0.521631          -0.0112573   0.122108    0.12324
 H                2.211    4.17272   0.209432          -0.0717654  -0.244802   0.110212
 H              3.08453    4.74757   0.543558          -0.0180798   0.168381 -0.0885678
 H              3.97609    4.18066    0.20702          -0.0571707  0.0316475  0.0224179
 H             0.426674   0.292544    1.09561            0.028969  -0.237843 -0.0690063
 H              1.35716  -0.250298    1.40391            0.125926 -0.0128559  -0.233922
 H              2.20868   0.362909    1.10036          -0.0470458   0.109575 0.00286736
 H              3.06102   -0.24392    1.39795          -0.0601262 -0.0675434   0.209309
 H              3.98255   0.299057     1.0844           -0.191166 -0.0393719  0.0195497
 H             0.410931    1.40447    1.09939            -0.0650247    0.0306837 -0.000543441
 H              1.31068   0.856177    1.40629             0.03738   0.143415   0.167777
 H              2.20743    1.43944    1.10981            0.134061  -0.073538  0.0622292
 H              3.10505   0.867354    1.41418           -0.175707  0.0524774  0.0644303
 H              4.00138    1.40176    1.08556            0.137155 -0.0608926   0.156128
 H             0.402153    2.51442    1.13325           -0.205767 -0.0250745   0.222759
 H              1.31297    1.94641     1.4307           0.0182911  -0.058563 -0.0583905
 H               2.2058    2.50587    1.11197          -0.0558759   0.224781  0.0314604
 H              3.10222    1.94347    1.43703             0.02904  0.0251153  -0.118789
 H              3.99132    2.51191    1.11696            0.107611 -0.0421324   0.263038
 H             0.376235    3.61019    1.12748           -0.0818696  -0.0590737 -0.00384104
 H              1.29738    3.05323    1.45291           0.00180252   -0.130699 -0.00680937
 H              2.19813    3.59263    1.13493            -0.13485  -0.047501  0.0670257
 H              3.08646    3.02872    1.44428           0.00319761 -0.00827449   0.0847339
 H              4.01045    3.61918     1.1519          -0.00884524    0.132424   -0.162092
 H             0.399175    4.71993    1.19869          -0.00220117  -0.0487722  -0.0667412
 H               1.3097    4.15134    1.45917           -0.118204 -0.0442464 -0.0693174
 H              2.21518    4.72571    1.22737             0.126265   0.0151278 -0.00628729
 H              3.09345    4.12053    1.45074           -0.163557 -0.0702412   -0.26706
 H              3.97488    4.74096    1.20779           0.0480593   0.044949   0.149982
 H             0.471457  -0.275368    2.04067           0.0243415   0.128972   0.167552
 H              1.33069   0.319043    2.35921            0.129092  0.0315893 -0.0821685
 H              2.21595  -0.278036    2.06033           0.0719978  0.0094766   0.109873
 H              3.08815   0.310274     2.3534          -0.0570046   0.025872   0.179559
 H              3.98165  -0.296452    2.03576           -0.024299   0.293812  -0.305381
 H             0.397159    0.83721    2.04097          -0.0844203  -0.117082 0.00065601
 H              1.30563    1.38755    2.37681           -0.346827 -0.0948339  -0.130621
 H               2.2074   0.856845    2.05529          -0.00561102  -0.0923493   0.0180186
 H              3.09906    1.39862    2.37434          -0.0598465   0.148665 -0.0496181
 H              3.98973   0.832481    2.04552          -0.0290448  0.0760141  0.0585569
 H             0.419506    1.93373    2.07263          -0.0143456   0.157705 -0.0760479
 H              1.30193    2.48078    2.39495           0.0138043  -0.103412 -0.0389128
 H              2.20914    1.93394    2.07099           0.0722087  0.0514413  0.0551895
 H              3.08788     2.4783    2.39066            0.238956  -0.132955   0.187503
 H              3.98783    1.94863    2.05935            0.135926  -0.214178 -0.0342699
 H             0.395792     3.0511    2.08793           0.0690198   0.016698  0.0357775
 H              1.30591    3.56503    2.39829           0.0521415  -0.169376  0.0850378
 H              2.19206    3.02581    2.07275            0.159153 -0.0830937 -0.0232706
 H              3.09943    3.57018    2.41289           -0.117141  0.0928515  0.0425896
 H              3.98488    3.03695     2.0912             0.10348  -0.175366 -0.0718237
 H             0.418439    4.12885    2.12404            0.140774   0.206477 0.00540684
 H              1.33893    4.71887    2.39135          -0.00843651    0.153905   0.0528445
 H              2.19606    4.10685    2.10717           0.0546439  0.0778301  -0.117948
 H              3.08018    4.67925    2.41133           -0.102699  0.0902964  0.0434922
 H              3.97637    4.13237    2.12724           -0.315484 -0.0376233   0.023357
 H             0.422136    0.28692    2.97712           0.0200437  0.0555338   0.164342
 H              1.32159  -0.298833    3.26207            0.103722  0.0114889 -0.0433146
 H              2.20345    0.27586    2.99957            -0.273391 -0.00833128    0.253353
 H              3.10436  -0.283737    3.26984            -0.03137   0.168235   0.124692
 H              4.00415    0.27803    2.98123            -0.18003   0.158302   -0.12994
 H             0.399069    1.38704    3.01878          -0.0548273   0.249786  -0.322005
 H              1.29902   0.837082    3.31674             0.20626 -0.0848357 -0.0408589
 H              2.19537    1.37739    2.99233           -0.189776  0.0390543   -0.21191
 H              3.12014   0.813545    3.32367          -0.0929818  -0.116528  -0.127512
 H              3.99947    1.38066    3.01289            0.0118516   -0.304167 0.000769456
 H               0.4089    2.48021    3.03264            0.124161  0.0580755    0.15905
 H              1.30992    1.90863     3.3223            0.0194942 -0.00419824    0.118611
 H              2.19887     2.4762    3.03357          -0.0752707   0.113003   0.119552
 H              3.08759    1.90692    3.33053          -0.0197303  -0.241612  0.0268526
 H              4.01008     2.4736    3.03189             0.29632  -0.137841   0.286461
 H             0.400626    3.58268    3.06049            0.131111  -0.153064 -0.0392147
 H              1.29759    3.00995    3.34421            -0.05331  0.0613248   0.151737
 H              2.20526    3.54721    3.03951           -0.163983  -0.317378  -0.236531
 H              3.09804     3.0065    3.35874            0.243091 -0.0833958  -0.141226
 H              3.98065    3.57645    3.07719           -0.198661  -0.101423 -0.0752801
 H             0.475907    4.72868    3.05906           -0.032333 -0.0205115   -0.29304
 H              1.31745    4.08551    3.31887           0.0209001  0.0390098   0.108306
 H              2.19324    4.68726    3.04987          -0.0137859   0.231771   0.180483
 H              3.06374     4.0715    3.34731          -0.0505823  -0.143356 -0.0403367
 H              3.90112     4.7226    3.10935           -0.143793  -0.171666  -0.134602
 H             0.385172  -0.325192    3.89068          0.00372035  0.0137721  0.0574558
 H              1.27323   0.238062    4.22096           -0.122475    0.02364 -0.0160948
 H              2.21659  -0.268808    3.92685            0.251989   0.200891  -0.219366
 H               3.1143   0.264119     4.2673          -0.0601703 -0.0431768 -0.0198421
 H              3.99893  -0.303617    3.94507           -0.174781   0.170183 -0.0623543
 H             0.376467   0.815108    3.94997           -0.101443  -0.139376  0.0653578
 H              1.31018      1.347    4.28655            0.114845   0.120561   0.198019
 H              2.19484   0.815984    3.94044            0.063802  0.0660547  0.0882593
 H              3.10775    1.35003    4.28277          0.00172462  -0.189505 -0.0890259
 H              3.99926   0.816494    3.96586           0.0248294  -0.127087  0.0382469
 H               0.4236    1.93219    4.00424            0.219692   0.218064  -0.121972
 H              1.32695    2.47175    4.28703          -0.0254772  0.0715117   0.163115
 H              2.17812    1.90979    3.98321           -0.155367   0.285797 -0.0346367
 H              3.07457    2.44528    4.29491           -0.115613  -0.216035  -0.108413
 H              4.00233    1.91534    3.97203           0.0897755   0.129201  -0.181221
 H             0.442242    3.06911    4.00771          -0.0233758  -0.155339 -0.0578458
 H               1.3316     3.5745    4.31703          -0.00281524  -0.0588016  -0.0428781
 H              2.19453    3.01646    3.97015          -0.0136225  0.0479028  -0.101064
 H              3.05065    3.56608    4.32304            0.272172   0.058482  -0.143665
 H               3.9836     2.9929    4.03139          -0.0517012 -0.0979374  -0.129464
 H             0.478897    4.17149    4.01368           -0.116356  -0.306643   0.244003
 H              1.44682    5.04405    3.78224           0.0482347 -0.0732961  -0.193994
 H              2.18591    4.15226     3.9874           0.0340581   0.152874  -0.176291
 H              2.97768    5.01798    3.81115           0.0889219 -0.0876525  0.0614332
 H              3.92303    4.14102    4.04598           0.0368276   0.302958   -0.14215
