125

 H             0.247785   -0.17004   0.245851            0.450639  -0.546137   0.254715
 H              1.27948   0.258658   0.415905            0.515307 -0.0955177   0.030777
 H              2.20405  -0.366545   0.223406            0.295049  -0.300468  0.0100088
 H              3.10731   0.238396   0.477473          -0.0491478    0.33567 -0.0590947
 H              4.05829 -0.0934097   0.137069           -0.352871  -0.218588   0.436129
 H               0.3745   0.901983   0.297309           -0.0079086   -0.391053 -0.00437345
 H              1.33522    1.40662   0.371783           -0.371416   0.320197   0.351555
 H              2.23212   0.796521   0.201578            -0.35137  -0.443511  0.0275172
 H              3.16666    1.36584   0.459211           0.0915109  -0.052192  -0.268932
 H              4.36166   0.909342   0.371681           -0.287785  -0.500681   -0.21893
 H             0.361852     1.9961   0.370859             1.24633  -0.431697    0.60286
 H               1.3329    2.50774   0.449589             0.23377   0.239406  -0.233612
 H              2.28019    1.93284   0.237492           -0.717463 -0.0806219   -0.41628
 H              3.18268    2.51169    0.47686           0.0334732   0.205622  -0.114635
 H              4.10789    1.96632   0.314556           -0.448009  -0.139533   0.621146
 H             0.386519     3.0913   0.369556            0.291573  -0.428993   0.187945
 H               1.3057    3.59567   0.453093          -0.0349235   0.324322  -0.157556
 H              2.24466     3.0692   0.235554           -0.489598 -0.0069131  -0.441227
 H              3.15112    3.61182   0.456736           -0.688707  0.0904163 -0.0159921
 H              4.12425    3.03805   0.306357           -0.962898  -0.132886  0.0938587
 H             0.260871    4.14013   0.123963            0.796753 0.00742722   0.516726
 H               1.2118    4.70463    0.41768            0.289243   0.206738   0.213877
 H              2.17735    4.20243   0.278444            0.292166   0.245407  -0.014297
 H              3.11055    4.73786   0.460289           -0.083765   0.306537    0.21302
 H               3.97415     4.11563 -0.00844941           -0.464794  -0.262667   0.458276
 H             0.365852    0.23776    1.24836           -0.133316  -0.151912  0.0643133
 H              1.30811  -0.364998    1.37173           -0.130041   0.126866 -0.0635418
 H              2.16859   0.250025    1.14823            0.100728  -0.171852 -0.0491187
 H              3.06103  -0.307408    1.43394            0.130864 -0.0525541  -0.501477
 H              3.95631   0.297387    1.19331          -0.0871318  -0.311776  0.0546397
 H             0.355218     1.3696    1.25195          -0.0257727  -0.211027  -0.119218
 H              1.29275   0.808055    1.34066          -0.0342697  0.0656017   0.232274
 H              2.17218    1.35016    1.12648            0.211571  0.0374949  -0.311471
 H              3.07198   0.850514    1.41407           -0.189406  -0.167289   0.260076
 H              3.95879    1.42645    1.20418           -0.180796   0.113209  -0.257213
 H               0.3084    2.45382    1.32919          -0.0890128  0.0222703   0.111227
 H              1.29916    1.92927    1.35271            0.223901   0.248953  0.0160894
 H              2.16739    2.50638    1.15877            0.654923   0.139486   -0.27011
 H              3.02353    1.92962    1.38086           0.0780327   0.172135  -0.133662
 H              3.98064    2.48765    1.31683            0.243713  0.0343578 -0.0635043
 H             0.114405    3.53605    1.30386            0.644179   0.364295  -0.198347
 H              1.21421    3.06344    1.37528            0.205825   0.432829   0.183692
 H              2.16732    3.60114    1.17543            0.036765   0.048823  -0.327693
 H               3.0656    3.04767    1.39375            0.320357   0.180207 -0.0540319
 H              4.00759    3.56462    1.25294           -0.344326   0.323938  -0.202717
 H             0.381876    4.55147    1.14212           -0.261005   0.716328   0.046306
 H              1.32253    4.16948    1.37104           -0.346086   -0.17839   0.236754
 H              2.24166    4.79247    1.22064           -0.314464   0.283814  -0.654235
 H              3.09756    4.14095    1.39518           -0.204249   0.243881   0.107248
 H              4.05578    4.60628    1.01693            0.188773   0.538873   0.452638
 H             0.375086  -0.336458    2.21553            0.675325  -0.149066    0.27868
 H              1.30519    0.27089    2.27527            0.415669  0.0217277     0.1224
 H              2.15304  -0.370305    2.07288          -0.0482902  -0.382365  0.0778951
 H              3.06945   0.255531    2.35205           0.0709094  -0.285386  -0.128801
 H              3.90546  -0.366715    2.08308          -0.0720189  -0.725489  0.0380233
 H             0.351501   0.812583    2.23544            0.680726  -0.012095  0.0429708
 H              1.31527    1.36945    2.27082           0.0405206   0.121282  0.0957125
 H              2.19909   0.812117    2.05911          -0.0210325   0.330274  -0.216496
 H              3.08125    1.41954    2.35697            0.160661  -0.130936 -0.0789388
 H              3.95317   0.832364    2.11432             0.601387 -0.00984758   -0.319769
 H             0.396205    1.92944    2.24341            -0.27617  0.0149677   0.169191
 H              1.31529    2.47678    2.27739            0.110658  0.0844764   0.573741
 H              2.18425    1.90032    2.04684            0.266828  -0.413132  -0.182898
 H              3.10348    2.48917    2.31488           -0.515177  -0.142101   -0.14826
 H              4.00395    1.89473    2.20924            0.330472  -0.173116  -0.170707
 H             0.421707    3.03781    2.22907           -0.105291   0.517265  0.0303078
 H              1.33588     3.5946      2.302            0.125931   0.247306     0.1975
 H              2.19125    3.01735    2.05593           -0.269063   0.419333  -0.246342
 H              3.08852    3.63727    2.31322           -0.138129   -0.10156 -0.0263977
 H              3.97032    3.04385    2.22577            0.121616   0.460333  -0.265786
 H             0.361032    4.12973    2.18402            0.542289   0.360922 -0.0972003
 H              1.26673     4.7282     2.2432            0.352994   0.616529    0.11387
 H              2.22614    4.16904    2.08741           0.0180955   0.416645   -0.17661
 H              3.10106    4.79381    2.31853            0.206199    0.40244   -0.20714
 H              3.99568    4.16973    2.15435           -0.204247  -0.460857   0.379278
 H             0.452494   0.266805    3.17466           0.0223672  -0.300112  -0.160353
 H              1.36738  -0.374524    3.15078            -0.70113  -0.368362  -0.227381
 H              2.25618   0.241633    2.98344            -0.20222 -0.0153819 -0.0247219
 H              3.13664  -0.375791    3.24508           -0.597777  -0.233509   0.177486
 H               4.0275   0.230582    3.02418            -0.36078  0.0246021  -0.167609
 H             0.547761    1.36682    3.19317             0.20838  -0.144154  0.0369096
 H              1.40399   0.791534    3.17442           -0.116571 -0.0838223    0.25392
 H              2.25005    1.35994    2.97894            0.221339  -0.660989   0.273094
 H              3.12057   0.810854     3.2636           -0.246808  -0.028683  0.0890274
 H              4.08063    1.33329    3.09999            0.170733  -0.456539  -0.238236
 H             0.495908    2.52199    3.17606             0.54222  -0.504262  -0.434758
 H              1.43098    1.96119    3.19679            0.162404  -0.052285    0.30417
 H              2.30343    2.45827    2.94299            0.244435   0.336731  -0.191543
 H              3.16471    1.90192    3.31123           -0.480105  -0.563274   0.245458
 H              4.05428    2.45774     3.1465            0.379534  0.0277761  -0.336756
 H             0.511306      3.632    3.15319          -0.0176269  -0.241868  -0.569748
 H              1.42913    3.03488    3.17857           -0.202158   0.412793   0.258852
 H              2.28034    3.61317    2.98452           -0.245235   0.109537 -0.0276188
 H               3.1449    3.03726    3.26802           -0.514073  0.0323809 0.00547732
 H              4.16323    3.63128    3.10649           -0.496595  -0.107685  -0.472779
 H             0.453809    4.76349    3.06117            0.570882   0.157385   0.141938
 H              1.40764    4.18354    3.16255           0.0514604  0.0268762   0.395392
 H              2.30818    4.78991    3.06674          -0.0152376   0.385465   0.050738
 H              3.20399    4.17459    3.26065            0.234823   0.291243  0.0865235
 H              3.99954     4.8318    3.05948           -0.301989   0.508954  0.0910555
 H             0.161352   -0.20635    4.12389            0.536664  -0.470042  -0.397397
 H              1.19515   0.264208    4.08353            0.320505 -0.0368894   0.352655
 H              2.17952  -0.313152     3.8817          0.00731036  -0.614037   -0.27014
 H              3.06857   0.223419    4.17803           -0.217236  0.0365042   0.685639
 H              4.01907  -0.385767    3.90787           -0.326245 -0.0251915  -0.269938
 H               0.2396   0.872249    4.10983           -0.212974  -0.469853  -0.415204
 H              1.21817    1.38404    4.09005          -0.0268981  0.0277727   0.395681
 H              2.19013   0.811091    3.90705          -0.0756395 -0.0127571   0.600526
 H              3.08926    1.38826    4.25314           -0.255086  -0.422722   0.395121
 H              3.97838    0.74214    3.98544           -0.171984  0.0122208  0.0486673
 H             0.267054    1.97356    4.09899            0.891061 -0.0743014  -0.381536
 H              1.27401    2.49443    4.10955            0.471837   0.270507   0.672618
 H              2.21508    1.93778    3.91232            -0.19113  0.0342181    0.31647
 H              3.17685     2.5049    4.23919           -0.648498   0.124879   0.198684
 H              4.08641    1.85777    4.06579           -0.769823   0.129816  -0.543761
 H             0.210703     3.0789    4.08374             0.14703  -0.203625  -0.422549
 H              1.20824    3.58199    4.05715          -0.0425205    0.39556  0.0325161
 H              2.24551    3.02215    3.89517           -0.109848  -0.111506   0.367783
 H              3.12462    3.66381    4.21017            -0.81384  0.0965952   0.682322
 H              4.14031    3.04936    4.10027           -0.427138   0.624811  -0.541405
 H            0.0130748    4.14417    3.95009             0.393522 -0.00879444   -0.572819
 H              1.01097    4.63523    4.03112            0.393117   0.405066  -0.111951
 H              2.18436    4.10607    3.95469            0.702274  -0.612309  -0.443779
 H               3.0572    4.79242    4.09758           -0.189496   0.452715   0.106314
 H              4.04383    4.25569    4.00744           -0.691017  -0.227849  -0.529675
