125

 H             0.830903  -0.660974   0.485838            0.252927  0.0355053  0.0460062
 H              1.33769     0.3294   0.447295            -0.193254     0.17134 -0.00912653
 H              2.04016  -0.540215   0.568795           0.0466211  0.0111734 -0.0555562
 H              3.06713   0.273734   0.443964           0.0567923  -0.163186   0.193063
 H               3.7149  -0.605073   0.568288           0.0192196  -0.141439   0.138575
 H             0.392284   0.853152   0.139347          -0.0964409 0.00783693 -0.0303401
 H              1.30321    1.43643   0.463371          -0.0950224  0.0219008   -0.17318
 H              2.20081   0.867694   0.134197          -0.0747337   0.196478   0.107228
 H              3.07731    1.40648   0.478772            0.190021  -0.153604   0.296106
 H              3.95466     0.8294   0.146199           0.0636218  0.0733194 -0.0938318
 H             0.398401    1.94728   0.118959            0.038873  0.0891798   -0.12968
 H              1.29489    2.52578   0.473042           0.0226922 -0.0154785 -0.0938794
 H              2.19846    1.97116   0.144283          -0.0255973   0.209219 -0.0103614
 H              3.09867    2.49915   0.505846          -0.0866876  -0.129717  -0.122276
 H              4.00897    1.95766   0.178818            -0.17988  0.0138559   -0.16198
 H             0.382619    3.06456   0.166841          -0.0891964  0.0485296  0.0096265
 H               1.3089    3.61188   0.501494            0.188611  -0.116767 -0.0270741
 H              2.21402    3.06516   0.173471           0.0698829  -0.210261  0.0995811
 H              3.11051    3.60711   0.524168           0.0639236  0.0686556  -0.215939
 H              4.02066    3.06729   0.219003          -0.0234071 -0.0496329   0.306001
 H             0.396003    4.20753   0.193206           0.0189265  0.0222763  -0.147927
 H              1.31708    4.69913   0.506839           0.0106287   0.153857  0.0168595
 H              2.22027    4.18263   0.200573            -0.149281   -0.171864 -0.00723839
 H              3.07814    4.72007   0.542485          0.00207426  0.0652628  0.0512823
 H              3.98377    4.18409   0.187742           0.0843792  0.0710688 -0.0383772
 H             0.426616   0.271807    1.08564            0.117429  0.0451681  -0.069413
 H               1.3494  -0.248571    1.37522           -0.131711 0.00967882  0.0990585
 H              2.20637   0.366328     1.1336          -0.0937134  0.0209427 -0.0545234
 H              3.06954  -0.276023    1.40848            0.183696   -0.10137  -0.229314
 H              3.97101   0.293911     1.1115            -0.26017  0.0375404   0.103858
 H             0.400453    1.41193    1.08568           0.0502144 -0.0737251 -0.0925488
 H               1.2836   0.886845    1.41912           -0.101458 -0.0569806 -0.0119809
 H              2.18931    1.42513    1.11551           0.0137893  -0.112183   0.059306
 H              3.10084    0.86872     1.4197          -0.00985424   0.0159449    0.186766
 H              4.00788     1.3924    1.11848          -0.0184453 -0.0695224  0.0975812
 H             0.381432    2.49856     1.1059           0.0397064   0.143427   0.239781
 H               1.2817    1.96286    1.43035          -0.0775686   0.147371  0.0812641
 H              2.19998    2.50727    1.11437            0.139608 -0.0143258   0.348744
 H              3.09056    1.95969    1.45472          -0.0246469   0.179464 -0.0711387
 H               3.9998    2.49987     1.1463            0.156279  -0.106881 -0.0995354
 H             0.401422    3.60277    1.14961          -0.0718898 -0.0215371 -0.0628961
 H              1.31312    3.04568    1.44625           -0.125185  0.0649744   0.170228
 H              2.20211    3.60508    1.12398            -0.09385  0.0343229 -0.0353991
 H              3.09339    3.06001     1.4471           -0.157145 -0.0519871 -0.0906322
 H              3.98969    3.62109    1.16033           0.0962548   0.181266 -0.0356069
 H              0.41915    4.71884     1.1885          0.000591414    0.139072  -0.0945147
 H              1.30631    4.12847    1.46458            0.106977  0.0825127  -0.144622
 H              2.19303    4.73055     1.1983           0.0763871  -0.138237  -0.114009
 H              3.08398    4.14777    1.46278          -0.0719988 0.00572537   -0.13451
 H              3.99854    4.71716    1.18344             -0.23063 -0.00793615    0.366357
 H             0.476544   -0.32282    2.05823            0.112462 -0.0559401  -0.179625
 H              1.32025   0.314647    2.33966            0.080764  0.0423404  0.0586532
 H              2.18478  -0.278411    2.07484           -0.234086  -0.167699  0.0257336
 H              3.07675   0.295637    2.34784           0.0507454   0.245808  -0.116195
 H              3.94285   -0.30798    2.04836          -0.00678009   -0.277428   0.0426685
 H             0.395396   0.825845    2.05134          -0.0873336  0.0876532 -0.0801599
 H              1.29295    1.40458    2.38078           -0.031073  0.0274468 -0.0105903
 H              2.19141    0.86641    2.07136           -0.129606  0.0998461  -0.102066
 H              3.08466    1.38905    2.39065            0.163189   0.189171  -0.136178
 H              3.99284    0.85184    2.06059           -0.177943  -0.104867   0.283408
 H             0.356411    1.91955    2.04907           -0.186654 -0.0360311  0.0227497
 H              1.27862    2.48047    2.38577          -0.0618621  -0.173712   0.164466
 H              2.19518    1.95671    2.06608          -0.0837212  -0.167398  0.0752555
 H              3.08448    2.49856    2.39241           -0.149122   0.112747 0.00878877
 H               3.9903     1.9418    2.08836            -0.278321   -0.202643 -0.00664253
 H             0.394627    3.01916    2.07335           0.0965012 -0.0896582 -0.0147714
 H              1.30017    3.54546    2.39623          -0.0708704  0.0535735   0.172776
 H              2.19719    3.04166    2.07821          -0.000386259    0.0717262     -0.15946
 H              3.10409    3.58089    2.39412            0.105426   0.213094  0.0799448
 H              3.99555    3.04084    2.09868            0.136233   0.103255  -0.141541
 H             0.436001    4.15226    2.13705            0.109791  -0.170092   0.424925
 H               1.3324    4.71587    2.37035           -0.055837 -0.0773468   0.184095
 H              2.19207    4.10936    2.09555          -0.0406841  0.0575293 0.00295916
 H               3.0663    4.71927    2.40589            0.298654  -0.025561  0.0766065
 H              3.98069    4.17081    2.11357             -0.2181 -0.0278622  0.0082931
 H              0.41771   0.279478    2.99502           0.0508256  -0.133818 -0.0951526
 H              1.30059  -0.288813     3.2384            0.110051 -0.0204578   0.116106
 H              2.19651   0.288746    2.99595          -0.0962118   -0.35423  0.0222943
 H              3.08524  -0.305059    3.25901            0.147151   0.102686   0.145554
 H              3.99315   0.263195    2.97642          -0.0320979   -0.18011  0.0669153
 H             0.409869    1.38229    3.01262          -0.0306909  0.0547149  -0.187643
 H              1.30406   0.806311    3.30563          -0.0650825 -0.0647777 -0.0613087
 H              2.19988    1.38072    3.01619          -0.0432272   0.117274  -0.242113
 H              3.10298   0.830325    3.31892            0.436207   -0.05974  -0.102919
 H              4.00671    1.37531    3.02231            0.309739  -0.167146   0.144092
 H              0.38915     2.4609    3.03876            0.177196   0.115048  0.0779256
 H               1.3033    1.91847    3.33622            0.130702   0.189433  -0.203033
 H              2.19002    2.45938    3.02129          -0.0743651 -0.0838899  -0.128688
 H              3.10776    1.92203    3.34623           0.0841322  0.0471679   0.033281
 H               4.0006    2.47649    3.03456           0.0798142  -0.257799 -0.0972006
 H             0.408066    3.57267    3.07947            0.121237 -0.0293871 0.00310233
 H              1.30003    3.00273    3.34612          -0.0303689  0.0442499   0.290619
 H              2.21513     3.5478    3.02884           -0.107952   0.152885  0.0677628
 H               3.1167     3.0104    3.34204            0.342843  0.0352875   0.185464
 H              4.00667     3.6051     3.0605           -0.015806  0.0269018 -0.0258931
 H             0.507118    4.75722    3.06891           -0.034341 -0.0252128  -0.240727
 H              1.35082    4.07329    3.31527          -0.0961556  -0.191345 -0.0263251
 H              2.19149    4.71536    3.05253           -0.103063  -0.135811  0.0911573
 H              3.06126    4.09253     3.3512          -0.0519153  -0.154504    0.12845
 H              3.91276    4.72096    3.06391            0.100553  0.0931361  -0.134718
 H             0.429533  -0.319757    3.93547          -0.0463568  -0.205267 0.00589944
 H               1.3008   0.251869    4.27337           -0.120087   0.101574  0.0772183
 H              2.18473  -0.320022     3.9012            0.117866   0.164263  -0.175816
 H              3.09079    0.21916    4.25666          -0.0822602  0.0239393  0.0575778
 H              3.99806  -0.310616    3.92937           -0.143107  0.0588956   0.113282
 H              0.40285   0.805936    3.95797             0.17333   0.146219  0.0927367
 H              1.32405    1.35216    4.27078           0.0842575    0.11405  0.0596908
 H              2.20999   0.789055    3.95944           0.0955947   0.089518  -0.187171
 H              3.09483    1.34884    4.29519            0.145213  0.0792116  -0.177132
 H              4.00684   0.793467    3.94288           -0.154627  0.0372399  -0.243768
 H             0.418946    1.90572    4.01563           0.0263036    -0.1104  0.0584306
 H              1.32138    2.45367    4.29352           -0.158478  -0.167776  0.0131035
 H              2.20035    1.89829    3.95547           -0.181072 -0.0380931   0.196225
 H              3.09606    2.48043    4.30615           -0.314314   0.104033  -0.130652
 H              4.00625    1.92709    3.99343           0.0432616   0.214634  -0.132777
 H             0.403658    3.01216    4.00445            0.235517  0.0628822  0.0035541
 H              1.33282    3.56284    4.29457           0.0984788 -0.0124026 -0.0652679
 H               2.2062    3.01016    3.95706           0.0365119 -0.0377933  -0.223407
 H              3.09145    3.57504    4.31037          -0.0529372 -0.0247128 -0.0561741
 H              4.00832    3.02189    3.99898          0.00436641   0.215202 -0.0444213
 H              0.52793    4.21529    4.01947          -0.00399574   0.0233378   0.0246023
 H              1.40221    4.99296    3.83922          -0.0415729  -0.125526  -0.383945
 H              2.19765     4.1554    4.00694          -0.0191849  -0.140987  0.0768919
 H              2.96604    5.02144    3.80954           0.0305089  0.0293748  0.0546274
 H              3.92856    4.17957    4.01594          -0.0521365  0.0898395   0.115736
