125

 H             0.721324  -0.621592   0.566336           -0.233316  0.0209966   0.264785
 H              1.33203   0.287375   0.448179           -0.276551   -0.16959 -0.0286319
 H              2.09898  -0.515374   0.505838          -0.0640331  0.0605533  -0.178829
 H              3.07286   0.319834   0.478364          -0.0806335   -0.10144  -0.169573
 H              3.67681  -0.606731   0.540067            0.312602  0.0310773  0.0244585
 H             0.426805   0.839123   0.156359            0.125019 -0.0304883  0.0849796
 H              1.31845    1.41114   0.449382            0.104629  0.0995232   0.199964
 H              2.21001   0.851475   0.129504           -0.196022   0.159877  0.0597565
 H              3.09498    1.42222   0.478698          -0.0968267 -0.0458699 -0.0203805
 H               3.9674   0.811708   0.129659          -0.00102798      0.1016    0.106584
 H             0.404466    1.96155   0.145691           0.0189854  -0.136349  0.0269583
 H              1.29923     2.5218   0.472205           0.0540975  0.0784386  0.0176077
 H              2.21841    1.96896    0.13387            0.240658  -0.136474  -0.147939
 H              3.12089    2.50153   0.467844          -0.0700813 -0.0681145  0.0688253
 H              4.05554    1.92463   0.177653           0.0314439  -0.154221  -0.175947
 H             0.396109    3.07674    0.14979            0.117248 0.00201563    0.16194
 H              1.29169    3.61532   0.485645          -0.0456289   0.158143  -0.032072
 H               2.1994    3.06206   0.177679           0.0680518   0.306181  0.0844949
 H              3.10008    3.59884    0.49506          0.00975439 -0.0329529  0.0710789
 H              4.01975    3.06495   0.164198           -0.191801   0.155939 -0.0911534
 H             0.372735    4.22889   0.246375          -0.0272353  0.0600228   0.138125
 H              1.32442    4.72008   0.558651            0.123725 -0.0455947 -0.0916078
 H              2.20548    4.18248   0.220714             0.10069  -0.280247   0.158508
 H              3.08247    4.73488   0.548954            0.510304   0.102433  -0.126675
 H              3.96888    4.17814   0.177486            0.197097   0.102411   0.197844
 H             0.408925   0.275356     1.1002            0.089135  0.0228183   0.200461
 H              1.35071  -0.257261    1.39969            0.172765  -0.227732 0.00272067
 H              2.20912    0.33746    1.12063          -0.0970561  -0.179087  0.0870998
 H               3.0626  -0.276861    1.40027          -0.0360009  -0.189334  -0.295149
 H              3.99306   0.278607    1.12772            -0.16242   -0.13316 -0.0548924
 H             0.403628    1.41729    1.09039           0.0618031  -0.348703  0.0637002
 H              1.29858    0.85946    1.38453          -0.0535439  0.0269725 -0.0653561
 H              2.20007    1.41674    1.09734           0.0661135 -0.0784617 -0.0333204
 H              3.10794   0.849179    1.42667          -0.0252255   -0.07711   0.290706
 H              4.00024    1.39737    1.09475          -0.0577453   0.266788  0.0989706
 H             0.399706    2.50898    1.10783            0.0923078   -0.321436 -0.00573571
 H              1.28533    1.96072    1.40635            0.0524369 -0.00308162   0.0736148
 H              2.20427    2.50065    1.10808          -0.0996696   0.385052  0.0218698
 H              3.10709    1.93401    1.41895           -0.106878  -0.025811   -0.19566
 H              4.02256    2.51233     1.1146          -0.0420923 -0.0641883 -0.0844959
 H             0.426627    3.60161    1.14596           0.0496296  -0.177348  -0.155985
 H              1.31491    3.04472    1.43547           -0.155142   0.192773 -0.0430805
 H              2.20578    3.58985    1.14515             0.30944  -0.154482 -0.0327605
 H              3.09855    3.03902    1.44172           0.0643757 -0.0399019  -0.188613
 H              3.99918    3.62644    1.14685          -0.0970711  0.0650317  -0.142122
 H             0.441536    4.74414    1.22116          -0.0284375  0.0923993   0.342459
 H              1.32787    4.11828    1.47709             0.14159  0.0468465   0.293964
 H              2.22006    4.73226    1.22011          -0.0578104  0.0922255 -0.0952842
 H              3.08511    4.11713    1.46008            0.101567  0.0637275  0.0120583
 H              3.97237    4.72485    1.18617           0.0472673 -0.0212391 0.00170964
 H             0.454108  -0.280312    2.05237            0.191839  -0.105225 -0.0222432
 H              1.31723   0.316278     2.3522          -0.0646952  0.0167148    0.02905
 H              2.19756  -0.280758    2.06654          -0.0272786  0.0309495   0.112379
 H              3.09079   0.298736    2.35598             0.135096    0.259674 -0.00407826
 H              3.93606  -0.296702    2.06206           0.0744373 -0.0141639  -0.243241
 H             0.409671   0.843826    2.04705          -0.0968239   0.156161  -0.105515
 H              1.29286    1.39798    2.34606            0.053655  -0.179413 -0.0922006
 H               2.1978    0.84421    2.04773           -0.185577 0.00473135   0.123816
 H               3.0798    1.39453    2.38003           -0.168098 -0.0697667  -0.188301
 H              3.99957   0.836449    2.06533             -0.1207  -0.147964  0.0162097
 H             0.371088     1.9469    2.04628           0.0605386   -0.19146    0.13405
 H              1.28574    2.47652      2.377          -0.0804288   0.154092  -0.197847
 H              2.18215    1.94011    2.04808           -0.046509 -0.0389433   0.221816
 H               3.0911    2.47786    2.37296          -0.00815997   -0.164552  -0.0807031
 H              3.98082    1.92793    2.06306           0.0139669 -0.0736763  0.0171365
 H             0.401838    3.03459    2.07564          -0.0673808  -0.141502 -0.0723686
 H              1.31404    3.55392    2.38644            0.119152   0.110975 -0.0343277
 H               2.2035    3.02287    2.06601            0.104687  0.0795929  0.0165261
 H              3.09126     3.5654    2.39045           0.0990276 -0.0484872 -0.0436906
 H              3.99153    3.04965     2.0652           0.0933524  0.0273611 0.00292106
 H             0.427298    4.13542    2.11537            0.164425 -0.0616189  0.0192768
 H              1.33143     4.7121    2.40371           -0.193045  -0.183054 -0.0896894
 H              2.19289     4.1254    2.12113             0.180272   0.0582007 0.000878847
 H              3.05327     4.6922    2.37632          -0.0195878 -0.0405002  -0.167705
 H              3.98052    4.14954    2.12401           0.0635431  0.0563629  0.0318653
 H             0.424889   0.296693    2.98952            0.198377 -0.0501013   0.174358
 H              1.29003  -0.287744    3.29572           -0.147111 -0.0413763  -0.162883
 H               2.2108   0.294026    3.01001           -0.087926  0.0350403  0.0763387
 H              3.11147  -0.271755     3.2831           0.0947427   0.101696 -0.0850618
 H              3.99603   0.285809    2.99516           0.0268859   0.291526   0.100242
 H             0.399435    1.38122    2.99608           0.0762302   -0.18966   0.141885
 H              1.30147   0.831344    3.32239           0.0874119 -0.0557325  -0.145449
 H              2.19198    1.37734    2.99791           -0.162441   0.307611 -0.0855777
 H              3.10768   0.830451    3.31921            0.171439 -0.0249274  -0.187673
 H              4.00985    1.39431    3.01529           0.00604918 0.000125362  -0.0127255
 H             0.386761    2.47296    3.01957           0.0360561 -0.0484938 -0.0441211
 H              1.29875    1.91874     3.3341            -0.10562  0.0881869   0.162052
 H              2.19438    2.46047    3.00769           -0.204268 -0.0719929  -0.200753
 H              3.09932    1.91761    3.35864            0.122799 -0.0252289 -0.0388138
 H               3.9996    2.47648    3.01029           -0.154748  -0.172414 -0.0949948
 H             0.403315    3.57844    3.05128           0.0285067   -0.11132 0.00490355
 H              1.30683    2.99551    3.33101           0.0352393   0.101725 -0.0615808
 H               2.1906    3.55342    3.02765          -0.0494529  -0.129349 -0.0457464
 H              3.09295    3.00592     3.3305              -0.1074 -0.00385813  -0.0167564
 H              4.01242    3.59356    3.05363           -0.219814  -0.168292    0.12961
 H             0.480926    4.72788    3.08312            0.149242  0.0178292   0.244566
 H              1.32035    4.07758     3.3141             0.027471 -0.00948009   0.0988542
 H              2.19563    4.70693    3.08572            0.0395299  -0.0456125 -0.00642275
 H              3.07012    4.08249    3.32325           0.0249162  0.0855342  0.0424079
 H              3.91469    4.71961    3.07832              0.13609   -0.147874 -0.00993617
 H             0.411209  -0.270024    3.94222             -0.10981 -0.00868936  -0.0869987
 H              1.32809   0.237995    4.26679          -0.0488219   0.059023    -0.1324
 H              2.21229  -0.343628    3.91379            0.127225   0.146723  -0.108525
 H              3.08135   0.236803    4.25979           -0.227087    0.17371    -0.2292
 H              4.00244  -0.277968    3.94623            0.167119 -0.0383353   0.134464
 H              0.41715   0.829052     3.9745             0.10651   0.170522 -0.0161686
 H                1.315     1.3656    4.31734           -0.251767 -0.0340258  0.0723158
 H              2.20205   0.809351    3.95201            0.170369  -0.119404   -0.21046
 H              3.08112    1.35884    4.30532           0.0368319 -0.0979717   0.194646
 H              3.99884   0.823123      3.968          -0.0865288   0.226023  -0.186942
 H             0.417461      1.912      3.993           -0.253388 -0.0864666   0.138873
 H              1.32548    2.46499    4.29254            0.167702  0.0253141  0.0948327
 H              2.20496    1.91796    3.96215            0.103815   0.054109  0.0214856
 H              3.06777    2.45773    4.29952           -0.288049   0.146617  -0.128217
 H              4.00164    1.93166    4.00436           0.0263354  0.0914497  0.0721909
 H             0.407263    3.02309    3.98533          -0.0540872    0.33951  -0.172166
 H              1.34075    3.56757    4.30798           -0.035905  0.0763663   0.135215
 H              2.20207    3.00836    3.96676          -0.0623256 -0.0927711   0.195994
 H               3.0753     3.5718    4.30591           -0.121749  0.0554123   0.192018
 H              3.97711    3.04677    3.99407           -0.009686   0.187315  0.0935723
 H             0.467277    4.17761    4.02809           -0.165154  0.0702465   0.121011
 H              1.33518    4.96701    3.86852           -0.244503   0.106602 -0.0647844
 H              2.18567    4.16241    3.98973          -0.0119445  0.0749018 0.00489931
 H              2.99201     4.9716    3.91368           -0.181104  -0.168027  -0.285159
 H               3.9413    4.15402    4.02019          -0.0123997 -0.0376365  0.0887856
