125

 H             0.836419  -0.655785   0.523612            0.325193 -0.0027355 0.00725055
 H               1.3455   0.299088   0.459326          -0.0192433  0.0516478   0.193066
 H              2.12604  -0.583835   0.626222            0.342175   0.203759  -0.197718
 H              3.05675   0.295862   0.460329            0.291994   0.125098    0.13013
 H              3.64732  -0.606649   0.493971          -0.0103004  0.0736967 -0.0311547
 H             0.425704    0.86077   0.107876           0.0638527 -0.0772092 -0.0428834
 H              1.30379    1.40944   0.464041            0.111921  -0.159734   0.018069
 H              2.19911   0.861902   0.114046            0.113481 -0.0758951   0.140985
 H              3.08342    1.40641   0.456884            0.147864   0.351797  -0.104452
 H              3.96867   0.809777   0.172279          -0.0484767  -0.063135  -0.231551
 H             0.397563    1.96548   0.150794            0.212467  0.0907867    0.23077
 H              1.29735    2.51763    0.49019           -0.146492  0.0870803  -0.211653
 H              2.18657    1.96396   0.155746          -0.0951729 -0.0512712   0.343215
 H              3.09107    2.50775   0.489877             0.0780879    -0.118497 -0.000354845
 H              3.97303    1.95089   0.121426          -0.0475233   0.210127  0.0281396
 H             0.343195    3.07203   0.158333           0.0844819  -0.120513  0.0420513
 H              1.30109    3.61701   0.483032           0.0234479  -0.315469 -0.0217339
 H              2.20469    3.07577   0.178817           -0.158196  0.0875275   0.287281
 H              3.10876    3.59104   0.474333          -0.0578918 -0.0143933  -0.158647
 H              4.04148    3.06365   0.169194            0.028525  0.0153132  -0.281191
 H             0.436613    4.20176   0.173861           -0.307277   0.013101   0.159596
 H              1.33457    4.74586   0.559228           0.0262438   0.164587  0.0874876
 H              2.21662    4.18319   0.225675            0.0368945    0.109403 -0.00921576
 H               3.1115    4.73865   0.558308            0.198599  0.0150945 -0.0565632
 H              4.03872     4.2007   0.212622          -0.0324132  -0.027647 -0.0807054
 H             0.400442    0.27683    1.07053          -0.0559862  0.0200545  0.0731695
 H              1.34415  -0.255578    1.39658          -0.0888407   0.115134 -0.0826899
 H              2.20885   0.335311    1.12926          -0.0388412 -0.0938009   0.244821
 H              3.06312  -0.290634    1.38312            0.190315 -0.0798777  -0.265562
 H              3.96308   0.266464    1.12941          -0.0892148 -0.0462025  -0.259872
 H             0.394571    1.39665     1.0841           -0.141918   0.107578 -0.0217581
 H              1.29703   0.859598    1.41459           0.0579504  0.0101853   0.128798
 H              2.20282    1.40264     1.0976            0.201828 -0.0322341   0.230844
 H              3.09893   0.845814    1.40872            0.153522  -0.047218 -0.0191448
 H              4.00377    1.38451    1.09563           0.0790841  0.0928047   -0.19744
 H             0.398376    2.51194    1.12041           0.0688157 -0.0176382 0.00967643
 H              1.30126    1.95492    1.43035          -0.00722842   -0.132869   0.0730355
 H                2.196    2.50181    1.13331           -0.222876   0.128451  0.0259542
 H              3.11129      1.944    1.42314            0.064937  0.0732687 -0.0744621
 H               4.0152    2.49014    1.09662          -0.0867808   -0.09096 -0.0647168
 H             0.409368    3.60899    1.12302            0.114412   0.253214   0.285534
 H               1.3041    3.03237    1.45366          -0.0545536 -0.0118519    0.11591
 H              2.19626    3.58723    1.15695          -0.0120794   0.155037  0.0223128
 H              3.09512    3.04001    1.43728          -0.0164098   -0.24308   0.109574
 H              4.00594    3.59934    1.13984          0.00406379 -0.0732544  0.0445311
 H             0.442609    4.70634    1.18916           -0.170543  -0.229795   0.207712
 H              1.32259    4.10834    1.47509          -0.0703197   0.179271    0.16197
 H              2.21033    4.71747    1.21071           -0.112383  -0.153911 -0.0813536
 H              3.09536    4.11506    1.45909            0.315061   0.187276 -0.0710461
 H              3.96376    4.74449    1.20543             0.302529 -0.00376002    0.133773
 H             0.425981  -0.263834    2.03648           -0.180947 -0.0871442   0.181739
 H              1.30928   0.305141    2.35207           -0.154734  0.0192189  0.0154528
 H              2.20519   -0.31446     2.0688           0.0607894  0.0199378  0.0709875
 H              3.09591   0.307798    2.32593          -0.0290065  0.0392508  -0.196504
 H              3.94216  -0.322712    2.06966            0.261698   0.084698  -0.229989
 H             0.416332   0.832591    2.05454           -0.113146   0.315836   0.153488
 H              1.29653    1.39433    2.37156          -0.0839766  -0.118432   0.318893
 H              2.19738   0.849477    2.05526           0.0102982 -0.0862918 -0.0918588
 H              3.09348    1.40711    2.37633          -0.00284517  -0.0492141 -0.00937906
 H               3.9915    0.85106    2.03982            0.175492  0.0574242 -0.0921314
 H             0.409077    1.93388    2.07706           -0.089114  -0.212645   0.215239
 H              1.30501    2.47232    2.39008           -0.083981   0.016401 -0.0521409
 H              2.19042    1.93121    2.05339            0.133176   -0.15935  0.0756651
 H              3.09152    2.48336    2.39647            0.108592  0.0619335 0.00733867
 H              3.99381    1.95324    2.05969           0.0889295   -0.12826 -0.0457458
 H             0.403952    3.03697    2.08473           0.0486323  0.0668329 -0.0378853
 H              1.30337    3.56562    2.40007           -0.310825   0.166214 -0.0952145
 H              2.20511    3.02748    2.08515          0.00608704   0.068507 -0.0933471
 H              3.08511    3.56672    2.40279          0.000951542   -0.126381   -0.205069
 H              3.98098     3.0458    2.08012           0.0744784  -0.030811  -0.127138
 H             0.403886    4.14268    2.10712          -0.0750508 -0.0965619  -0.108944
 H              1.30453    4.69058    2.39089          -0.0965184  0.0559535  0.0801579
 H              2.20457    4.11815     2.1188           -0.0337496 -0.00483596   0.0529102
 H              3.07638     4.7051    2.37806            -0.198611   -0.124574 -0.00724668
 H              3.99331    4.15058    2.12285              0.1408  -0.034319   0.104611
 H             0.388474    0.27842     3.0047           -0.100426   -0.06284  -0.261939
 H              1.31027  -0.295805     3.2519            0.119208 0.00959024 -0.0628299
 H              2.22018   0.287313    2.99624           0.0807155  -0.017568  -0.167491
 H              3.11292   -0.29513    3.22887          -0.0254941 -0.0739261 -0.0282892
 H              3.99519   0.301471    2.97111           -0.107082  -0.111163  0.0471665
 H             0.393415    1.38371    3.02133            -0.20266  0.0387481  0.0589244
 H              1.30239   0.815551    3.30677            0.160204  0.0655719   0.152007
 H              2.19007    1.38788    3.00342          -0.0272466 -0.0188441  -0.150601
 H              3.09133   0.818408     3.3167           -0.326659 -0.0428832   0.221472
 H              3.98602      1.385    3.00904           0.0463724  -0.200737  -0.117424
 H             0.391462    2.48576    3.04642           -0.142195 -0.0715196  -0.129419
 H              1.28667    1.92169    3.33786           0.0645303  0.0514609   0.025046
 H              2.20427    2.47096     3.0276           -0.125175   0.244011  0.0354641
 H              3.08771     1.9342    3.34156            0.101925  0.0571368 -0.0739924
 H              3.99438    2.48255     3.0423           -0.155407  -0.123468   0.107093
 H             0.389176    3.58855    3.05446           0.0543702  -0.089639   0.106501
 H              1.29855    3.00132    3.35977           -0.198515   0.093709  0.0701175
 H              2.18713    3.56299    3.03205          -0.0589797  0.0791572   0.132791
 H              3.09439    3.01904    3.35183             0.076912 0.000927046   0.0617507
 H              4.00198    3.58488    3.06831          -0.0399905  -0.056119  0.0396425
 H             0.456506    4.73084    3.07396           0.0514497 -0.0200988  -0.234305
 H              1.31318    4.09407    3.31841            0.117029 -0.0841037  -0.157303
 H              2.20441    4.71191     3.0683           -0.164221  0.0488856  0.0120767
 H              3.08109    4.09269    3.33286          -0.0827079  0.0294409  -0.070981
 H              3.96313     4.7073    3.05775             0.28711  -0.308857  -0.153556
 H             0.432115    -0.3202    3.94017           0.0703328  0.0152056 -0.0721747
 H              1.32654   0.224739    4.23648           0.0364244  -0.058046   0.109598
 H              2.22581  -0.338215    3.88285          -0.0517358  0.0405695  -0.006631
 H              3.09419   0.245029    4.23589           0.0932335 -0.0767731 -0.0163848
 H              3.99141  -0.253857    3.91404             0.20545  0.0617836   0.105636
 H               0.3831   0.816731    3.97362           -0.180758 -0.0268219  0.0757544
 H              1.31951    1.35033    4.27395          -0.0150563   0.206133  0.0633299
 H              2.20096   0.801344    3.94411          -0.0958896  -0.101284 -0.0584451
 H              3.07885    1.35595    4.30264          -0.0417677 -0.0618557    0.17565
 H              4.00926   0.835989    3.95826          -0.0166255 -0.0973032  0.0269005
 H              0.41183    1.95517     4.0091           -0.120488   0.211289 -0.0609547
 H              1.33004    2.46544    4.33088          -0.0856522 -0.0155581 -0.0363545
 H              2.20615    1.91643    3.97045            0.173883    0.11206  0.0579594
 H               3.0781    2.47684    4.33566           -0.236301  -0.099642   0.116844
 H              3.98029     1.9481    3.98236           -0.160972    -0.2323   0.190055
 H             0.414386    3.06425    4.01684           -0.382991   0.097901  -0.179583
 H              1.31651    3.58919    4.31812           0.0552868   0.103314  -0.155454
 H              2.19932    3.02858    3.97805           0.0665479 -0.0100356  0.0239314
 H              3.08275    3.58951    4.31854           -0.239954 0.00913557  0.0443567
 H              3.98513    3.03591    4.00289           0.0768836  -0.190705   0.139667
 H              0.41765    4.19189    4.02479           0.0868316   0.167764 -0.0844488
 H              1.44272    4.98218    3.89327           -0.111469   0.146694  -0.201277
 H              2.20641    4.14139    3.99638           0.0112985 -0.0605729  -0.201784
 H              2.95144    4.99216    3.87165            0.146604   0.204713  -0.166639
 H              3.92657    4.20294    4.02415            0.109615  -0.134264   -0.20515
