125

 H             0.704073  -0.572444   0.486867            0.460541  -0.378071   0.266718
 H              1.31713   0.306278   0.502719            -0.23212  0.0598904  -0.294504
 H              2.15663  -0.402935   0.400814          -0.0683742  0.0321686   0.164664
 H              3.04673   0.287911   0.504748          -0.0987128  0.0165023   0.214737
 H              3.85784  -0.384973   0.283946          -0.0966459  -0.253316  -0.198634
 H             0.409242   0.818436   0.168728            0.289941   0.272541  -0.204345
 H                1.303    1.39478   0.482876          -0.0469882   0.217303 0.00698717
 H              2.16618   0.841328     0.1457           -0.547721  -0.116296 -0.0773173
 H              3.08823    1.39269   0.467086            -0.13464  0.0194408     0.1906
 H              3.95293   0.806984   0.155508           -0.158827  -0.111504    0.24871
 H             0.429819    1.92079   0.132978          -0.0142808   0.105911  -0.185693
 H              1.29532    2.50669   0.485611           0.0791864  -0.145273   0.106072
 H              2.18375    1.94051   0.123367          -0.0164554   -0.10853   -0.28601
 H              3.11261    2.49182   0.481439           -0.129493  0.0754619   0.130291
 H              4.00405    1.92999   0.110053           0.0819631  -0.138761   0.179918
 H             0.381704    3.08797   0.169523            0.182255   0.239499  0.0303132
 H              1.31595    3.58586   0.501029           -0.062521 -0.0629759  -0.114806
 H              2.21456    3.03104   0.149123          -0.0789725  -0.150378  -0.301646
 H              3.11401     3.5785    0.48008           -0.190524 -0.0712688  -0.089578
 H              4.07002     3.0662   0.176611           -0.162984  0.0877801   0.248676
 H             0.458228    4.22198   0.232146           0.0375241  -0.123053  -0.161787
 H              1.35751    4.71987   0.563311           -0.175995   0.102791  0.0604396
 H              2.24673    4.15038   0.198383            0.129392   0.236515 -0.0654347
 H              3.10395    4.70456   0.562526           0.0144083  -0.112853   0.253163
 H              4.02825    4.19853   0.266662           0.0762836  0.0204683 -0.0542608
 H              0.41378   0.251326    1.15486           -0.252814  -0.122803  -0.319305
 H              1.35388  -0.317044    1.39819           0.0635731  0.0604299  -0.115026
 H              2.18506   0.312893    1.18092             0.13348   0.225516 -0.0485905
 H              3.09272  -0.261025    1.43184          -0.00450499   -0.071345   0.0381674
 H              3.98339    0.30915    1.12396          -0.0624336  0.0998856     0.2028
 H             0.379698    1.39601    1.09671           -0.135905 -0.0091792 0.00281784
 H              1.28253   0.869655    1.43005            -0.16619  0.0135942  -0.271007
 H              2.19777    1.39397    1.09193           -0.142393   0.107156 -0.0832211
 H              3.08324   0.875454    1.42625            0.121053  -0.236411  0.0398725
 H              3.98531    1.39595    1.08528           0.0708431  -0.100312   0.233364
 H             0.352646    2.50107    1.10842           0.0572419  -0.191226  0.0644139
 H              1.25985    1.94327    1.42075           -0.195288 -0.0203808 -0.0497613
 H              2.17115    2.48051    1.10415           -0.143293 -0.0708393  -0.286232
 H              3.09213    1.94214    1.45271           -0.087633 -0.0396424 -0.0636407
 H              4.00138    2.48871    1.11723            -0.14388  0.0609758   0.179234
 H             0.401462    3.60905    1.14161           0.0594128 -0.0853644 -0.0967709
 H              1.26357    3.01463    1.46183            0.152404    0.11853  0.0750633
 H              2.19345     3.5649    1.11769           -0.125427 -0.0363259 -0.0884688
 H              3.07593    3.00531    1.44226           -0.158654   0.177355  -0.135771
 H              4.00813    3.58819    1.16127           -0.309425  0.0659124    0.18287
 H             0.458617    4.77148    1.23553           -0.308812   0.166016  -0.244935
 H              1.30144    4.11539    1.45968           -0.112238   0.113348 -0.0896444
 H               2.2151      4.691    1.20543           -0.217153  -0.146036  -0.100916
 H              3.08831    4.07959    1.47267            0.270318  0.0608043   0.144799
 H              3.87559     4.8267    1.30731            0.327673   -0.16265  0.0142423
 H             0.503265  -0.383083    2.09734           -0.313236    0.31017  -0.282213
 H              1.31173    0.31444     2.3342           0.0868571  -0.215977   0.142177
 H              2.18064  -0.281557    2.13738            0.131804 -0.0430553  -0.289844
 H              3.10305    0.31063    2.36532           0.0708717 -0.0809352 -0.0364741
 H              4.03839  -0.229652    2.06629          -0.0367335  0.0222022  -0.259694
 H             0.392693   0.859878    2.05293          0.000126532    -0.09186    0.116667
 H              1.29399    1.40576    2.37662           -0.166521  0.0323197  -0.126683
 H              2.20039    0.86664    2.07897          0.000844817    0.262755  -0.0101118
 H              3.07678    1.39022    2.40954            0.133122  0.0843151   0.165385
 H              4.01483   0.875459     2.0519           -0.267063   0.256342 -0.0483452
 H             0.352427    1.94129    2.06994            0.284513  -0.150702   0.172586
 H              1.29317    2.49055    2.40274           0.0564662  0.0017272 -0.0145069
 H              2.17651    1.94775    2.04535          -0.0310388   0.127161  -0.210194
 H              3.09127    2.46039    2.39705          -0.0349856  -0.103164   0.406762
 H              4.00156     1.9407     2.0397           -0.204641   0.145425   0.157444
 H             0.354837    3.03271     2.0729          -0.0842177    -0.2523   0.176869
 H              1.27645    3.55601    2.38124          -0.0626679   0.103953  0.0503934
 H              2.18122    3.01647    2.05572            0.113402 -0.0935176  -0.258936
 H                3.113    3.53241    2.37902            0.279165  0.0962666   0.153691
 H              4.03282    3.01368    2.06979           -0.104219   0.198157   0.287158
 H             0.373597     4.1245    2.10802           -0.274602   0.113025  -0.290815
 H              1.33302    4.66456    2.36804            0.283946  -0.134327  0.0239658
 H               2.1992    4.07761     2.0892            0.141862  -0.131108 -0.0282366
 H              3.08924    4.67761    2.35677           -0.176072 -0.0547306  0.0933425
 H              4.02281    4.11306    2.09572           0.0522058  0.0179365 -0.0800319
 H             0.420117    0.28611    2.96496            0.107824 -0.0719099  -0.205536
 H              1.33795  -0.294944    3.20928           -0.403555  -0.201409   0.198808
 H              2.21295   0.336296    3.00947          -0.0583709 -0.0378802  -0.218929
 H              3.07413  -0.282987    3.27476            0.125883  -0.071994    0.34721
 H              3.98769   0.343876    2.99369            -0.138568 -0.00398331   -0.222059
 H             0.400539    1.37321    3.01289           -0.132387  -0.155923 0.00140629
 H              1.29942   0.839523    3.31266          -0.0505546   0.113712 -0.0461981
 H              2.17795    1.40258    3.01331            0.284873 0.00376398 -0.0210035
 H               3.0973    0.84876     3.3418           -0.075311 -0.0202071  0.0883112
 H              3.97249    1.40817    3.01761            0.148214 -0.0280545  0.0536108
 H             0.391093     2.4819    3.04353          -0.0916089  0.0786796   0.126637
 H              1.28858    1.91955    3.35367             0.11967   -0.05874 -0.0918264
 H              2.19184    2.46887    3.02662            0.241502 0.00788098 -0.0917426
 H              3.07626    1.92768    3.36684            0.189656  0.0389359  0.0201169
 H               3.9842    2.48887    3.01197           -0.022387   0.106201  0.0966373
 H             0.430969    3.60491    3.05669            0.322878   0.202134   0.061285
 H              1.30211    3.03104    3.36948            0.202609  -0.189418  -0.164219
 H              2.20466    3.52306    3.00895            0.085024   -0.21465 -0.0499864
 H              3.08595    3.00621    3.35039          -0.0416852  -0.231373  0.0163726
 H              4.02937    3.56627    3.02605            0.188506  0.0651691  0.0432694
 H             0.479844    4.73597    3.03624           -0.402862  -0.418099 0.00850667
 H              1.34042    4.10189    3.32579            0.056524  0.0305735     0.1887
 H              2.21468    4.66266    3.03747            0.262066  0.0854043  -0.078862
 H              3.08877    4.07635    3.27835            0.042234  -0.133413   0.164611
 H              3.98403    4.68706    3.01447           0.0413832   0.223947 -0.0244188
 H             0.442803  -0.281585     3.8717           -0.161411    0.22658   0.270745
 H              1.29834   0.261008    4.23859           -0.134356 -0.0177145   0.055846
 H              2.17995  -0.292036    3.92234            0.178453   0.456212    0.12908
 H              3.08264   0.242534    4.27068            0.123207  -0.049859   0.118123
 H              3.98294  -0.253061    3.89275            0.412105  0.0501179  0.0596116
 H              0.37804    0.80394    3.94921          -0.0697252   0.255131   -0.13586
 H              1.26804    1.35323    4.30499           -0.103459   -0.23839 -0.0971823
 H               2.1972   0.831782    3.96956            0.110114  0.0202175    -0.2322
 H              3.08858    1.37247    4.33023          -0.0298264   0.225981 -0.0447858
 H              3.98194   0.848907    3.99112            0.021706 -0.0255689  0.0300599
 H              0.36772    1.93101    3.98664            0.125971  -0.240274 -0.0365171
 H              1.28144     2.4756     4.3114            0.159122  -0.140198  0.0422039
 H              2.16804    1.91818    3.99477          -0.00168134   -0.140127 -0.00302463
 H              3.07537     2.4665    4.32406            0.245601  0.0668642   0.123777
 H              3.97557    1.95037    3.97573          -0.0213163   0.217054 -0.0104225
 H             0.399815    3.06264    4.02171             0.155883 -0.00667955  -0.0490372
 H              1.33011    3.59466    4.34109          -0.0827721  0.0570989 -0.0705096
 H              2.19287    3.02415    3.98416          -0.0576498  -0.278427   0.234188
 H              3.07546     3.5666    4.31656            0.169225   -0.14337 -0.0697346
 H              3.99734    3.03874    3.97729           -0.157005   0.145306  0.0420814
 H             0.459565    4.20126    3.98431            0.0878644 -0.00998704    0.241976
 H              1.43819    4.91823    3.98113            0.208475  0.0709326  -0.230838
 H              2.22918    4.12801    3.99973               0.1233 -0.00890285    0.169261
 H               3.0707    4.94283    3.87301           -0.192317   0.235907 -0.0293776
 H              3.92338    4.16207    3.96824            0.183552    0.04167  0.0298521
