125

 H             0.838172  -0.630294   0.533989           0.0975349   0.225687  0.0152061
 H              1.35035   0.310229   0.476931           -0.183638 -0.0246464   0.211847
 H              2.04577  -0.528019   0.569613           0.0773288  -0.247581  0.0459461
 H              3.06008   0.279233   0.451829           -0.144919  0.0441815 -0.0652885
 H               3.6321   -0.66443   0.580756            0.137664 -0.0185671    0.14122
 H             0.471519   0.838359   0.111813          -0.0486801 -0.0131412  0.0570528
 H              1.30096    1.42559   0.484651          -0.0061922 -0.0268953  0.0412729
 H              2.20509   0.869434   0.135828           -0.0374238 -0.00903838  -0.0988619
 H              3.09855    1.41908   0.458558            0.190256   0.155227  0.0414976
 H              3.95684    0.83379   0.136414           -0.121442  0.0719057 -0.0582354
 H             0.410859    1.93586   0.132142           0.0102464  -0.277407 -0.0394345
 H              1.31002    2.51855   0.517065          -0.0583817  0.0874255  0.0361517
 H              2.19831    1.96747   0.147642            0.206216 -0.0749004  0.0178845
 H              3.08752    2.50371   0.499598           -0.110582  -0.113714  0.0352848
 H              3.99839    1.96238   0.164234             0.27695    0.08292  0.0937495
 H             0.375894    3.03927   0.164198            0.230476  -0.170506 -0.0612066
 H              1.28428    3.60135   0.501164           0.0970745  -0.132526  -0.208484
 H              2.19726    3.08296   0.148871          -0.0632959  -0.173906  0.0373024
 H              3.08745    3.58263   0.509171            0.149096  0.0310379   0.104367
 H              4.01506    3.08312   0.190333           -0.214973  -0.151025 -0.0987836
 H             0.416352    4.16035   0.178204           -0.207939   0.116785   0.187669
 H              1.32178    4.71433   0.549997           0.0189453   0.030329    0.11677
 H              2.20304    4.18377   0.216345           0.0754485 -0.0234815   0.372712
 H              3.08799    4.71227   0.522599           -0.408448  0.0594641   0.112412
 H                3.999     4.1828   0.239474           0.0888781  0.0533953  0.0702059
 H             0.409719   0.283722    1.09732            0.130736 -0.0231943  -0.229376
 H              1.34615  -0.238195    1.40846           -0.063662  0.0702977   0.219811
 H              2.20884   0.342756    1.13147            0.016915  0.0306491 -0.0835936
 H              3.05819   -0.25959    1.40889           0.0504388   0.164651 -0.0274942
 H              3.97556   0.265994    1.09375           -0.072072 -0.0109401   0.134519
 H             0.390994     1.4012     1.1055           -0.146093   0.194085   0.163776
 H              1.31368    0.87813    1.40571           0.0712292 -0.0707896  -0.056043
 H              2.19857    1.41508    1.10713           0.0350775 -0.0900341   0.310177
 H              3.09309   0.875563     1.4046           -0.144923   0.117425  0.0312185
 H              4.00877    1.39396     1.1029            0.122086  0.0719385 -0.0981902
 H             0.402606    2.50645    1.14026             0.131588    0.193951 -0.00990289
 H              1.31533    1.96509    1.44356          -0.0784776    0.07915 0.00973173
 H              2.21049    2.50446    1.13499            0.336599   0.107373   0.223486
 H              3.10188    1.95058    1.43085          -0.0409716  0.0665372 0.00985733
 H               3.9999    2.50349    1.14046           -0.132445    0.14965 -0.0421009
 H             0.393556    3.60605    1.14177          -0.0503592  -0.226077 -0.0867669
 H              1.30815    3.06086    1.45578           0.0870952   0.152732 -0.0848877
 H              2.19111    3.59387    1.13581           -0.113156  0.0816704   0.182248
 H              3.11036    3.02382    1.46747          0.00371599  0.0101322  0.0916799
 H               3.9793    3.60305    1.17345          -0.00804321  -0.0493874   0.0387081
 H             0.408803    4.71573    1.16119            0.136508  0.0481167 -0.0846592
 H              1.30977    4.13152    1.46152          -0.0695408  -0.162209  0.0623762
 H              2.21544    4.73316    1.22891            -0.238861   -0.142453 -0.00575365
 H              3.08816    4.12794    1.47164          0.00219287   0.017952  -0.300024
 H              3.95241    4.75991    1.21209           -0.126972 -0.0701538  0.0222225
 H             0.428011  -0.278711    2.04867           -0.100324 -0.0424461 0.00613361
 H              1.31715   0.310214    2.32879           0.0256227 -0.0470842  0.0542446
 H               2.2083  -0.272872    2.10324          -0.0602544  -0.254714  -0.179551
 H              3.09793   0.311145    2.33589            0.246207 -0.0453394  0.0857784
 H              3.94839  -0.318724    2.07948            0.105483 -0.0714453  -0.201761
 H             0.409551   0.848736    2.04509           -0.166944  0.0575826 -0.0185515
 H              1.30514     1.3771    2.37388           -0.212659 -0.0445397  -0.295097
 H              2.21503   0.865217    2.05575          -0.0780727   0.197179   0.116552
 H              3.10867      1.396     2.3787           0.0477677  0.0270301 0.00453216
 H              4.00627   0.817698    2.04738          -0.0929193 -0.0942637 -0.0506779
 H             0.399607    1.93629    2.07883            0.194467   0.106268   0.232168
 H              1.29585    2.48818    2.38158           -0.129598 -0.0569327  0.0782279
 H               2.2096    1.93476    2.06778          -0.00513742   0.0438327  -0.0506888
 H              3.09198    2.46932    2.38773            0.192947  -0.272754   0.057642
 H              4.01007    1.93236    2.06863           0.0839872 -0.0309246   0.112942
 H             0.404028    3.04546    2.08449           0.00689133 -0.00546786   0.0027773
 H              1.30469    3.59215    2.39703           0.0131754 -0.0399055 -0.0968054
 H              2.20433    3.02337    2.07153            0.131407 -0.0339361  -0.136694
 H              3.10699    3.56575    2.41148          -0.0150482  -0.120086   0.141346
 H              3.98793     3.0555    2.10017          -0.0643176 -0.0586048 -0.0184034
 H             0.398519    4.14494     2.0995            0.155506 -0.0470827  -0.242822
 H              1.33417    4.71731    2.41082           0.0247723 -0.0535968 -0.0644118
 H              2.20378    4.09977    2.10385           0.0642474  -0.110726 -0.0930271
 H              3.05581    4.71781     2.3837          -0.00154203   -0.101201    0.076567
 H              3.96558    4.16374    2.12361           0.0218065 -0.0254634 -0.0139774
 H             0.413973   0.296597    2.99702           -0.164274   0.206535 -0.0835786
 H              1.31187  -0.313992    3.23988            0.179805  -0.314509 -0.0387107
 H              2.19875   0.297008    3.00242          -0.0515209    0.21254   0.159172
 H              3.09296  -0.312225    3.23721            0.192106    0.25403  0.0788093
 H              3.99118   0.264981    2.99539          -0.0108904 -0.0550045  0.0810268
 H             0.404259    1.37789     3.0155          -0.000946971   -0.0783011      -0.3447
 H              1.30719   0.831315    3.31721           0.0257639 -0.0452582   0.106496
 H              2.19643    1.37778    3.02151           0.0287656  -0.166694  0.0442027
 H              3.10476   0.808578    3.30371          -0.00649893   -0.161702  -0.0780744
 H              4.00896    1.38419    2.99906           -0.114533   -0.11678 -0.0523994
 H             0.420236    2.48615    3.03935          -0.0639302   0.168819  0.0767314
 H              1.30224    1.92313    3.32919          -0.0619587   0.108201  -0.050055
 H              2.19921    2.47068    3.00841           0.0279887  0.0418259 -0.0132211
 H              3.10849    1.92047    3.33677          -0.0717451   0.147714  0.0758357
 H              3.97592    2.47384    3.03258           -0.112282  0.0001484  -0.429568
 H             0.374701    3.60823    3.05742           0.0728275    0.11396   0.106517
 H              1.30262    3.01561    3.33673          -0.0385538  -0.129265    0.11474
 H              2.19918    3.56696    3.01699           -0.249027 -0.0236863    0.22875
 H              3.09192    3.01102    3.32657             0.21354  0.0886881  0.0883045
 H              3.99654     3.5933    3.05411           0.0594344   0.268993   0.108685
 H             0.484068    4.74149    3.07022          -0.0394322   0.109298  -0.145456
 H              1.32018    4.07627    3.33921           0.0369122  0.0589373 -0.0488891
 H               2.1999    4.69963    3.05779          -0.0639413   0.135244  -0.293645
 H              3.07286    4.07727    3.34043            0.120851  0.0174929 -0.0726275
 H              3.89159    4.73777    3.07109            0.253756  -0.101868   -0.11537
 H             0.404714  -0.309578    3.88747          -0.0628314 -0.0819302   0.133005
 H              1.30583   0.242382    4.21707           -0.220518   0.192022  -0.210864
 H              2.20537  -0.314644    3.90523           0.0548295  0.0170666  -0.193319
 H              3.09071   0.236315    4.24504            0.123939  0.0180418  -0.314013
 H              3.95386  -0.328733    3.90135           0.0992349 -0.0777625  0.0177874
 H             0.414157   0.810573    3.96678            0.111494  0.0627324  -0.224473
 H              1.32524    1.35404    4.30065            -0.192859  -0.0480605 -0.00196613
 H              2.20545    0.81402    3.96181          0.00735159 -0.0214918 -0.0631953
 H              3.10883    1.35394    4.26372          -0.0648159   0.107791  -0.102139
 H              4.01442   0.812133    3.94902           0.0645147  -0.117541   -0.19012
 H             0.423334    1.93801     3.9729            -0.15266  -0.285081  0.0727603
 H              1.32428    2.47103    4.29281            -0.26461   0.133052   0.102184
 H              2.20698     1.9165     3.9707          -0.0084329    0.18513  0.0413705
 H               3.1039      2.477    4.27658            -0.188455 -0.00805197    0.026674
 H              4.00561    1.90531     3.9824          -0.0116182  0.0449261 -0.0780005
 H             0.400053    3.03604    4.00732          -0.0493319   0.140575   0.422355
 H              1.32169    3.57248    4.32533          -0.0923801  -0.102554 -0.0429679
 H              2.21672    3.00214    3.96876           0.0905552  0.0222017 -0.0993512
 H              3.07433    3.57006    4.29368          -0.00828253   0.0218377    0.343973
 H              4.01177    3.03562    3.98393          -0.0602357  -0.048514  -0.123514
 H             0.432088    4.18912    4.02349           0.0112761  0.0163076  0.0128504
 H              1.44199    5.01294    3.82287          -0.0104813 -0.0778717  0.0420263
 H              2.18622    4.13197    3.99534           0.0128603 -0.0412731  0.0127402
 H              2.96767    4.99443    3.86254            0.195791  -0.019946  -0.185051
 H               3.9239    4.19207    4.02289            0.177174   0.141562  0.0925534
