125

 H             0.835395  -0.644519    0.50292          -0.0707532   0.111504 -0.0617369
 H              1.34522   0.328732   0.446397          -0.0447505  -0.293716  -0.172706
 H              2.05668  -0.498432   0.517402          -0.0478753   0.206094 -0.0580445
 H              3.04953   0.285173   0.463256           0.0261492  -0.225503  -0.054619
 H              3.63515   -0.67199   0.595939           0.0183207  0.0969005   0.139215
 H             0.442419   0.833565   0.138343           -0.155339  -0.145068  0.0825251
 H              1.32112    1.42757   0.473422          -0.0542596  0.0629431  0.0872658
 H              2.20079   0.861863  0.0961595            0.110332  0.0759742  -0.015529
 H              3.07699    1.41154   0.445313          -0.0897665 -0.0234309  -0.115785
 H              3.97892   0.798156    0.13345           0.0610118   -0.20568  -0.122614
 H             0.436069    1.94169   0.123784           -0.153624 -0.0325543   0.085016
 H              1.31036    2.52333   0.492037            -0.20429 -0.0585216  0.0522844
 H               2.2071    1.98024   0.141589           -0.0126735    0.156995 0.000270686
 H              3.11943    2.49438    0.50805           0.0638916   0.229127  0.0222535
 H              3.98809    1.94019   0.170885            -0.01458 -0.0075752 -0.0850865
 H             0.410445    3.05711   0.181438           0.0759611 -0.0223185 0.00317099
 H              1.31521     3.6136   0.506803             0.18031  -0.179253 -0.0189361
 H               2.2017    3.05738   0.177687           -0.291296  0.0534442   0.130154
 H              3.10526    3.60708   0.507974            0.207029    0.19528 -0.0737808
 H              4.02419    3.04919   0.184913           -0.195434 -0.0771455  0.0218035
 H             0.411925    4.15304   0.189115          -0.0193129 0.00449228  0.0236554
 H              1.31369    4.73689   0.518423            0.120461 -0.0623481  0.0886222
 H              2.19787    4.17001   0.243508          -0.0209351   0.216799   0.016222
 H              3.07544    4.73515   0.535669           0.0878879  -0.234413 -0.0574598
 H              3.96855    4.18754   0.224469          -0.0309815 0.00309814  0.0228075
 H              0.44398   0.275239    1.08306           0.0834722   0.061222  -0.193887
 H               1.3321  -0.273084    1.40593            0.163202  0.0297532  0.0948809
 H              2.19308   0.353435    1.13569          -0.0910684 -0.0662311  0.0557374
 H              3.03361  -0.255307    1.40615          -0.0742393  -0.014381   0.205188
 H              3.95796   0.267565    1.09372           -0.292926   0.255754  0.0880104
 H             0.408803    1.39539    1.08973            0.141779  -0.176268  -0.182511
 H              1.30486   0.868462    1.40918           0.0306703 -0.0898188 -0.0912789
 H              2.21892    1.42196    1.09663          -0.00149082  -0.0758716     -0.2072
 H              3.09809   0.858325    1.40986            0.119201  0.0913984 -0.0615446
 H              3.98505    1.39031    1.09597           0.0118041  -0.141578   0.183053
 H             0.403431    2.50244    1.11296           -0.211747 -0.0630634   0.142387
 H              1.29795    1.94777    1.44917           -0.170074  -0.100311   0.146798
 H              2.19707    2.50086    1.13386           0.0506747   0.180631 -0.0687941
 H              3.09214     1.9514    1.44104          -0.0844114   0.194941 -0.0924597
 H              3.99276    2.50043     1.1393           -0.111697 -0.0220418  -0.291931
 H             0.393333    3.60819    1.14701           -0.215281   0.160969 -0.0410115
 H              1.30319    3.04851    1.45299           -0.218017  -0.140183  -0.120319
 H              2.19363    3.57909    1.14506           0.0304393   0.091915  -0.192942
 H              3.10172    3.03827    1.45249           -0.275453   0.184518  -0.225365
 H              3.97582    3.61142    1.15421           0.0830243    0.18655   0.150805
 H             0.451314    4.72831    1.19687           -0.148922  -0.127505   0.087694
 H              1.30715    4.12256    1.46133           0.0518791  -0.118248  -0.141937
 H              2.19069    4.72215    1.21382            0.279869  0.0585002 0.00495734
 H               3.0726    4.13405    1.47062             0.18264  -0.196332 -0.0959179
 H               3.9563    4.74439    1.21081            0.130087   0.125334   0.133553
 H             0.427717  -0.276301    2.03083          -0.0064186   0.258522  -0.176413
 H              1.31635   0.322815    2.32736            0.160542  -0.119084  0.0706318
 H              2.19135  -0.266585    2.08207          -0.0187862   0.090498 0.00913879
 H              3.07077   0.323712    2.35269          -0.0671402  0.0795409   0.125397
 H                3.896  -0.315713    2.03862            0.273826  -0.281234 -0.0759123
 H             0.413537   0.842089    2.06638           -0.209511 -0.0370288  0.0235681
 H              1.29169    1.39701    2.38236          -0.0915385  -0.156731 -0.0851111
 H              2.19553   0.876695    2.06166             0.0226591  -0.00702969 -0.000524184
 H              3.10378    1.40554    2.36438           -0.150413   0.113491  -0.157427
 H              3.98403   0.823049     2.0491            0.124651   0.110211 -0.0864023
 H             0.407355    1.93034     2.0694           0.0974205   0.200263 -0.0624988
 H              1.30969    2.47694    2.40083           -0.327767  -0.403972   0.221306
 H              2.19682    1.94656    2.07387           0.0896194  0.0719032   -0.13932
 H              3.11081     2.4834    2.39505           -0.154326 0.00753985  0.0984114
 H              4.00054    1.94193    2.08106            0.196021 -0.0479341   0.144359
 H             0.407826    3.02088      2.096            0.156285  -0.121373  -0.172831
 H              1.30527    3.57196    2.39985          0.00216706  0.0889444  -0.269309
 H              2.19935    3.03009      2.072          -0.0989181  -0.250128 -0.0483176
 H              3.10084     3.5668    2.39895            0.140855   0.297147 -0.0906667
 H              4.02765    3.03556    2.10048           0.0920878 -0.0357239  0.0801173
 H             0.406436    4.13707    2.11599           -0.106821   0.246332 -0.0348328
 H              1.31598    4.72124    2.37892             0.126192   0.0332142 -0.00316873
 H              2.18816    4.13432    2.11873            -0.127663   0.0878865 -0.00151493
 H              3.06469    4.69351    2.40049           -0.115985 -0.0706361 -0.0181792
 H              3.99831    4.17672    2.11409          -0.0107063   0.244569   0.112775
 H              0.41632   0.271175    2.98916           -0.171782  0.0181266   0.030179
 H              1.31295  -0.304464    3.23875           0.0313347  -0.022146  -0.020118
 H              2.20135   0.299606    3.00672             0.10676   -0.17156  0.0351508
 H              3.09459  -0.308233    3.24717            0.123678 -0.0494449 0.00347006
 H              4.00327   0.279048    2.96389            0.0325516 -0.00520754   0.0759777
 H             0.409469    1.36211    3.03403            -0.20344  -0.179854  0.0452049
 H              1.30592   0.839565     3.3198           0.0282782  0.0105859  0.0169777
 H              2.20187    1.39577    3.00736           -0.133445 -0.0356996   0.181379
 H              3.08077   0.836873    3.30948            0.205594   0.147796  0.0307918
 H              3.99218    1.38456    3.03239          -0.0365245   0.037777   0.130322
 H             0.399484    2.46564    3.02901            0.076957   0.158265  -0.182657
 H              1.30422    1.93301    3.33744           -0.182665 -0.0558281 -0.0679485
 H              2.19221      2.481    3.01588          -0.0958647  -0.127935 -0.0234623
 H              3.09573    1.94134    3.34985            0.201748  0.0904758 0.00672432
 H              4.00914    2.48753    3.03717           0.0265356   0.200735   0.161453
 H              0.40414    3.58691    3.04964            0.243542  0.0262439  -0.263717
 H              1.28901    3.01279    3.35604           -0.148012 -0.0279538  0.0827395
 H              2.19668    3.55324    3.02713          -0.0526432   0.122421   0.104744
 H              3.09416    3.01232    3.34996          -0.0781966 -0.0100727   0.146779
 H              4.01511    3.59152    3.06468           -0.116337 -0.0721003 -0.0601438
 H              0.45335    4.73386    3.04577            0.149847 -0.0161014  -0.215549
 H              1.32298    4.09351    3.31215            0.158063   -0.29731  0.0402273
 H              2.18282    4.70647    3.05171              0.16745   0.0131722 -0.00135021
 H              3.07944    4.07498     3.3212           0.0529249  -0.127776   0.130267
 H              3.91333    4.75728    3.09987           0.0174507 -0.0379401  0.0304802
 H             0.408677  -0.341695    3.89082           -0.110304   0.110748   0.229211
 H              1.32761   0.224658    4.21673          -0.0435599  0.0798826  -0.106531
 H              2.22316  -0.352742    3.93789           0.0891741  -0.071937   -0.11333
 H              3.11956   0.226873    4.24467           -0.048794   0.139573  -0.134102
 H              4.01222  -0.327984    3.87963           -0.266537   0.107121    0.11449
 H             0.403096   0.797338    3.98556          -0.0519394  -0.202435  0.0225647
 H              1.32553    1.35772    4.29176            -0.10681 0.00965579  0.0853271
 H              2.21267   0.803678    3.94491            0.108278  0.0287466 -0.0269593
 H              3.10628     1.3512     4.2989            0.281911  -0.106631  0.0710184
 H              4.00877   0.815677    3.95738           0.0355084  -0.218967   0.215073
 H             0.419056    1.91329     4.0019            0.107911 -0.0612928    0.26404
 H              1.32016    2.46821    4.32169          -0.0367613  0.0738844   -0.21735
 H              2.19808    1.91108    3.95617           0.0972777  -0.194711  0.0214352
 H              3.08095    2.46901    4.32094           -0.0178564 -0.00767639   0.0055528
 H               3.9742    1.91615    3.99885            0.142573   0.089385  0.0854199
 H             0.421429    3.05804    4.00272            0.101046  -0.100224   0.181747
 H              1.33107    3.58645    4.30423          -0.0384371   0.169695   0.155189
 H              2.18927    3.01965    3.96112            0.150977 -0.0349704 -0.0557215
 H              3.06135    3.59149    4.32324           0.0758587  0.0284396  0.0420976
 H              3.97386    3.03914    4.02249          -0.0233316 -0.0904312  -0.122113
 H             0.488637    4.19604    4.02907          -0.0901569     0.0207  0.0620029
 H              1.44107    4.99068    3.83778           0.0879437  0.0358049 -0.0811893
 H              2.21013    4.17166    3.98928           0.0718902 -0.0977009   -0.23623
 H              2.98117    5.04149    3.76653           -0.0595108 -0.00169285    0.166965
 H              3.92795    4.16524    4.02187            0.134613     0.1724   0.265262
