125

 H             0.896666  -0.678526   0.538481            0.121545  0.0735797  0.0224735
 H              1.33184    0.32126   0.465472          -0.0137282  -0.170089    0.09328
 H              2.08297  -0.525625   0.569503          -0.0133482  0.0778729   0.189143
 H              3.05921   0.306288   0.451257           -0.112153  0.0139056  0.0499274
 H               3.6896  -0.603367   0.545451            0.194912   0.070208 -0.0828807
 H             0.422503   0.834926   0.144372           0.0771026 -0.0773508  0.0595708
 H              1.32202    1.42306   0.473676            0.140707  -0.210464   0.121096
 H              2.18792   0.875977   0.112413          -0.0257028   0.112353  0.0411967
 H              3.10401    1.41805   0.480713          -0.0143146 -0.0321569  0.0167088
 H              3.98597   0.829138   0.123774            0.179174 0.00489656  0.0147593
 H             0.411703    1.95447   0.146383          -0.0219307   0.114366  0.0200796
 H              1.31083    2.50055   0.500829           -0.279043   0.196192  0.0845065
 H              2.20204      1.976   0.134574            0.114191 -0.0288446  -0.150888
 H              3.10087    2.52314   0.479494           -0.373163  -0.165705  0.0287735
 H              3.97831      1.972   0.147897          -0.0459798   0.167013  -0.150939
 H             0.415734    3.05855   0.178296           -0.164563  0.0254438  0.0763936
 H              1.29566    3.62103   0.515552          0.00930508  -0.243927   0.231726
 H              2.18403    3.06855   0.203718           -0.0916316 -0.00483349 -0.00108424
 H              3.09751    3.61945   0.514859           -0.208372   -0.18307  -0.148135
 H              4.00186    3.06844   0.171106            0.108627  -0.170204    0.11606
 H             0.406054    4.19492   0.222597            0.230382   0.136207  -0.170543
 H               1.3444    4.73877   0.555827            0.026068  -0.275982 0.00294288
 H              2.20602    4.16922   0.215291           -0.030501  -0.218422   -0.24298
 H              3.06883    4.74856   0.550092            0.166553   0.156414  0.0772855
 H               3.9664    4.18436   0.213932           0.0461142   0.280266   0.260991
 H             0.427133   0.266053    1.08076           -0.179118  -0.241253 -0.0364053
 H               1.3412  -0.235817    1.40766          -0.0749441  0.0456677   0.139365
 H              2.20298    0.36487    1.13555            0.101054  -0.147122  0.0192361
 H              3.03231  -0.283795    1.38843             -0.100389    0.0915587 -0.000478715
 H              3.96732   0.305422    1.10608           0.0626764 -0.0776787   0.125066
 H             0.387001     1.3843    1.08952           0.0223671 -0.0369201   -0.24867
 H              1.29021   0.869114    1.41575          -0.00557815   0.0410175   0.0148135
 H                2.202    1.43396    1.09787            0.110538   0.261085 -0.0776101
 H              3.09716   0.880071    1.41195           0.0632226  -0.154678 -0.0225135
 H              4.01055    1.41865    1.11147          -0.00629269   0.0494944    -0.14896
 H             0.384229    2.49234    1.12198           0.0480589  -0.128024   0.123637
 H              1.29027    1.94537    1.44601           -0.142949  0.0676673   0.168111
 H              2.19602    2.49909    1.13433          -0.0762512    0.19448   0.176308
 H              3.09942    1.96784    1.42329          -0.00208557   -0.183268   0.0370984
 H              3.99784    2.51001    1.12426           0.0806602 -0.0562379 -0.0785363
 H             0.398103    3.60086    1.14016          -0.0862716  -0.189417  0.0733015
 H              1.30132    3.03135    1.45517          -0.0183353 -0.0624885   0.104082
 H              2.19086    3.59318    1.15433           0.0989365  0.0807306   0.129906
 H              3.10647    3.03202    1.44425           0.0732929  0.0694455 -0.0300264
 H              4.02731    3.60568    1.13624          -0.0701712  0.0288019 -0.0694245
 H             0.419313    4.76096    1.18365          -0.0724393 -0.0650392  -0.107539
 H              1.28506    4.14356    1.45794           0.0921008  0.0241927  -0.114619
 H               2.2102    4.72163    1.22438          -0.0566174  0.0952744 -0.0633031
 H              3.10071    4.13575    1.45469          -0.0947797 0.00892004  -0.150539
 H              3.99244    4.72589    1.19791            0.330474   -0.27401 -0.0903749
 H             0.460626  -0.289095    2.03937           -0.117883   0.279423 -0.0937796
 H              1.31706   0.305478    2.34749           -0.190965 -0.0667251   0.169651
 H              2.19613  -0.270559    2.08713            0.267168   0.241987  -0.435588
 H              3.07899    0.30424    2.33894            0.124063  -0.138165  -0.429047
 H               3.9582  -0.280132    2.00939           0.0493534  0.0905018 0.00801008
 H             0.386974   0.837357     2.0435            0.0207009 -0.00637685   0.0216743
 H              1.30827    1.38989    2.38453          -0.0304288   0.117833  0.0591962
 H               2.1944   0.866371    2.05589           -0.142348  -0.164262 -0.0847024
 H              3.10147    1.39389    2.38491          -0.0251266  -0.121705 -0.0266572
 H              4.01704   0.850447    2.05089           0.0750938  -0.179052  -0.125681
 H             0.390545    1.94364    2.06656          -0.0775817 -0.0139862  0.0825363
 H              1.28818    2.47251    2.42363           -0.081734 -0.0274889   0.131346
 H              2.20249    1.93576    2.08395          -0.0199144  0.0508685   0.225952
 H              3.11562    2.46317    2.39292          -0.0985337   0.002932 -0.0654759
 H              4.00643    1.93564    2.06202            0.301458  0.0203126   0.145476
 H             0.401937     3.0255    2.08624           0.0832311 -0.0726486 -0.0406651
 H              1.29461    3.56815    2.38846           0.0412502   0.273864 -0.0192361
 H              2.19915     3.0161    2.08936           -0.112749  0.0261682 -0.0343503
 H              3.09628    3.55767    2.37574            0.242456  0.0990763 -0.0150472
 H              4.01755    3.01835    2.07508            0.103442  0.0486662  -0.219625
 H             0.412337    4.16897    2.11422             0.310811 0.000580022   0.0184538
 H              1.33644    4.70792    2.39723            0.242989   0.106623  -0.140114
 H              2.20004    4.10973     2.0992          -0.0360761   0.232261  0.0376831
 H              3.06613    4.69988    2.37537           0.0569124 -0.0243996   0.181899
 H              3.99018    4.12762    2.12093          -0.0906265  0.0275967   0.180569
 H             0.423108   0.269978    2.97414          -0.0799414  0.0787673  0.0510463
 H              1.31555  -0.306906    3.24773          -0.0552432  -0.201174  -0.169323
 H              2.19209   0.297134    2.99597            0.242489  0.0838906  -0.274133
 H              3.09385  -0.308447    3.27057            0.123074 -0.0248171   0.139822
 H              3.97959   0.275247    3.00396          -0.0401434   0.174855  -0.296339
 H             0.411176    1.38314    3.01465          -0.0744997  -0.254848   0.105095
 H              1.30682   0.831347    3.31433           0.0479842 0.00607497  0.0126179
 H              2.19187    1.38701    3.01765            0.141348  0.0434306  -0.276002
 H              3.09938   0.824297    3.32106           0.0986648   0.147951    0.11322
 H              3.99781    1.38185     3.0218          -0.0361561   0.248757  0.0272145
 H             0.393988    2.49416    3.02434           -0.147577    0.14716 -0.0260042
 H               1.2922    1.92603    3.35346            0.262877  0.0572415  0.0955776
 H              2.21086     2.4642    3.03617           -0.172549 -0.0701914 0.00836564
 H              3.09776    1.89886     3.3537           0.0304476  0.0200048  0.0957233
 H              3.99087    2.47077    3.03294           0.0130652 -0.0837231    0.16328
 H             0.385305    3.59243    3.05062           -0.117554  0.0390829   0.262597
 H              1.30847    3.01566    3.35119           0.0413938   0.176131  0.0510363
 H              2.19176    3.54427    3.02828            -0.10623  0.0592108  0.0647521
 H              3.10496    2.99466    3.34052           -0.145283  -0.119529 -0.0112416
 H              3.99521    3.56767    3.03933           0.0187781  -0.160203   0.204258
 H             0.478135    4.74777    3.08605           0.0685032   0.100813   -0.18413
 H              1.31509    4.07691    3.32088          0.00508899 -0.0400183 -0.0722109
 H              2.19432    4.67135    3.03954           -0.176951   0.181401 -0.0870477
 H              3.08458    4.06759    3.30024           0.0987256  -0.116619  0.0265737
 H              3.94937    4.72069    3.04793          0.00769162  0.0470979    0.12364
 H              0.39473  -0.346248     3.9003           -0.116327  0.0742169   0.164489
 H              1.29567    0.25304    4.23701           -0.322149 -0.0948187   0.146611
 H               2.1973  -0.293821    3.93015          -0.00483461  -0.0223035   0.0711447
 H              3.06776   0.232473    4.27398           0.0371395 -0.0921402 0.00992417
 H              4.00128  -0.275567    3.95024          -0.0236604  -0.154583  -0.156364
 H             0.396391    0.80046    3.95004            0.151896  0.0395433   0.101499
 H              1.29519    1.35419    4.27656           -0.314082 -0.0792242   0.010993
 H              2.18904   0.809623    3.97419          -0.0597038 -0.0507896   0.170163
 H              3.10414    1.35965    4.30476           0.0167689 -0.0288382  0.0139238
 H              3.99189   0.806552     3.9557          -0.0318603 -0.0323112 -0.0516929
 H             0.377611     1.9262    3.96271            -0.29798 -0.0143216  0.0398974
 H              1.28075    2.46681    4.31906          -0.0213621 -0.0556353 -0.0695777
 H              2.18375    1.90169    3.99527            0.133194   0.159592  -0.151318
 H              3.09657    2.44926    4.30164           0.0903805  -0.294752  0.0125899
 H              4.00509    1.92363    3.97895           0.0898842   0.264316  0.0763039
 H             0.410835    3.02697    3.99009           -0.117941 -0.0626166  0.0166868
 H              1.35413    3.56678    4.33423            0.126907 -0.0941234  -0.012055
 H              2.20577    2.99952    4.00385           -0.199661  0.0734057  -0.210586
 H               3.0765    3.55097    4.31067           0.0142009  -0.183046  -0.182218
 H              3.99416    3.03971    3.98192          0.00759017  0.0735713 -0.0713305
 H             0.477447     4.1826    4.01043          -0.0210109     -0.109   0.045661
 H              1.43216     5.0603    3.75832           0.0090009  0.0286575  0.0228517
 H              2.20239    4.13435    3.97717            0.111589 -0.0320995   -0.10061
 H              2.99419    4.97551     3.8614           -0.238315   0.165582 -0.0451397
 H              3.90367    4.18166    3.98213          -0.0800379  0.0872197  0.0358987
