125

 H              0.89872  -0.681689   0.459178           -0.110503   0.229691  -0.162183
 H              1.33706   0.298012   0.448398           0.0331303   0.376983 -0.0113261
 H              2.13777  -0.537892   0.548596           -0.296832  0.0648136   0.103809
 H              3.06025   0.317201   0.440008          0.00573288 -0.0164004  0.0442916
 H              3.70956  -0.544549   0.443893            0.211171  -0.213256  0.0242242
 H             0.396268   0.798457   0.147528            0.222445  0.0405394 -0.0381525
 H              1.29254    1.41989   0.453795           0.0921706 -0.0689417  -0.050046
 H              2.19258   0.870047   0.153641            0.158628 -0.0525285 -0.0990987
 H              3.09074     1.4085   0.485659           0.0126899   -0.20412  -0.219661
 H              3.99596    0.82151   0.168881           -0.154055 -0.0815266  -0.152653
 H             0.370517    1.94382    0.12787            0.156107  -0.209392  0.0647616
 H              1.30652    2.50114   0.460609           0.0160059  -0.164359  0.0170598
 H              2.20837    1.95801   0.155636            0.108208   0.214278  -0.164494
 H               3.0817     2.5065   0.500693            0.036187   0.146568  -0.100225
 H              3.97038    1.96009     0.1419          -0.0468956 -0.0585436  0.0126544
 H             0.379332    3.07494    0.18121            0.104541   0.108851  0.0883198
 H              1.29284    3.59227   0.497237            0.131122   0.223662   0.169701
 H              2.18931    3.04695   0.178235          -0.0335814  0.0622544  0.0370528
 H              3.08697    3.60125   0.508525           -0.239797 -0.0875272  0.0120293
 H              3.97206    3.06475   0.137117           -0.258472 0.00881292 -0.0503626
 H             0.432578    4.19399   0.207984             0.18822 -0.0713485  -0.171669
 H              1.34433    4.73108    0.53747           0.0743638  0.0689712 -0.0734886
 H              2.18954    4.15363   0.227048          -0.00599368   0.0262762   -0.100104
 H              3.06124    4.72598   0.537125          -0.0648084 -0.0603759  0.0559718
 H              3.98299    4.18734   0.197332          -0.0672822   0.257843  0.0614542
 H              0.43792   0.245201    1.10888            0.282065 -0.0285987   -0.10752
 H               1.3484   -0.28169    1.38938          0.00618901  0.0187786  0.0988336
 H              2.19337   0.350203    1.12301          -0.0392193   0.309526 -0.0820031
 H              3.06076  -0.256374    1.36776            0.211536   0.195225  -0.220237
 H              3.98408    0.29047    1.11713              0.112525 -0.000648603    0.0449031
 H             0.367048    1.39445    1.09466            0.100118  -0.333413   0.171417
 H              1.29924   0.862366    1.40783          -0.0856287 -0.0159311   0.198062
 H              2.18968    1.41821    1.09869          0.00361692 0.00603386 -0.0760381
 H              3.10633   0.860445    1.41338             0.12498 -0.0640146 -0.0978075
 H              4.00693    1.40303    1.09817            0.126901  -0.240277  -0.174911
 H             0.403467    2.52155    1.09908           -0.144648 -0.0577138  0.0991336
 H               1.2877    1.94852    1.41098           -0.187569   0.148718   0.199468
 H              2.18736    2.48169    1.12685            0.101023  -0.144337   0.108828
 H              3.09693    1.93791    1.44169          -0.0805225  0.0177853   0.201379
 H              3.98249    2.50106    1.10843          -0.0655374  -0.121318  -0.133951
 H             0.381421    3.61968    1.15545          -0.0970335 -0.0488179  0.0858436
 H              1.30188    3.04387    1.42087          -0.0117488  -0.233249   0.064579
 H              2.19867    3.57487     1.1542          -0.0507176 -0.0570436 0.00154789
 H              3.10081    3.02069    1.45569            0.124185  0.0211895  -0.105005
 H              3.99775    3.59962    1.14618          -0.00183631   -0.121746  -0.0286514
 H             0.448759    4.71189     1.1946           0.0887183  -0.110865   0.117406
 H               1.3267    4.13637    1.46706            0.015662 -0.0385548 -0.0360442
 H                2.204    4.71085    1.21709          -0.0864652 -0.0497925 -0.0486214
 H              3.08995    4.11472    1.46962           0.0182304  -0.217608   -0.10291
 H              3.95146    4.71002    1.17233           0.0544807   0.107004   0.216324
 H             0.476639  -0.313255    2.07988            0.127719  -0.156355  -0.124142
 H              1.31644   0.309529     2.3638            0.258866  0.0571686   0.128692
 H              2.20798  -0.240894    2.05242           -0.186321 -0.0100885  0.0348623
 H              3.08878   0.308659    2.33537            0.175598  0.0985784 -0.0689829
 H                3.944  -0.288989    2.03078           0.0653045   0.353368 -0.0542344
 H              0.40764   0.827082    2.05312            0.102886  -0.107886 -0.0595137
 H              1.29418    1.39917    2.37234          -0.0419912  0.0315151   0.106399
 H              2.19468   0.867769    2.05503          0.00392173  0.0591575  -0.157018
 H              3.10498    1.38864    2.39365           0.0954805   0.120135  0.0521015
 H              4.02784   0.846304     2.0409           0.0738348  -0.218585   0.046778
 H              0.37281    1.93397    2.04538          0.00193343 -0.0136947   0.145037
 H              1.29912    2.46844    2.37144          -0.0601011   0.147865    0.25016
 H              2.19347    1.93105    2.06137          -0.0972597  0.0761088  0.0430937
 H               3.0897    2.46815    2.39133          -0.0890336   0.094003  0.0452537
 H              4.00579    1.95889    2.06521           -0.128701 -0.0792924 -0.0959056
 H             0.386698    3.05297     2.0744           0.0688967   -0.20313   0.110487
 H              1.29474    3.55266     2.3769           -0.084231  0.0966246 -0.0136468
 H              2.21144    3.01063    2.08424           0.0698189  -0.318244 0.00971291
 H              3.09429    3.55099    2.39924          -0.0867235  0.0250352  -0.109522
 H              4.00841    3.04789    2.09556           0.0338894  -0.118427 -0.0582427
 H             0.433047    4.17936    2.14757            0.206316 0.00557346  -0.064728
 H                1.354     4.7051    2.39271          -0.0573664 -0.0343559 -0.0768103
 H              2.21952    4.10988    2.11246          -0.0334046   0.176715  0.0770805
 H              3.08239    4.70973    2.37431            0.169119   0.206156 -0.0752546
 H              3.96934    4.12285    2.12927            0.134477  -0.174943   0.123963
 H             0.400824    0.28192    3.02096          -0.0774953  0.0944991   0.148876
 H                 1.31  -0.283129    3.26805           -0.249229   0.214489   0.191043
 H              2.19379   0.303308    2.99541            -0.04341  0.0110801 -0.0970754
 H              3.08126   -0.26119    3.28101           -0.238921  -0.186943  -0.118145
 H              4.01121    0.27813    2.99537            0.146401 -0.0293686   0.294581
 H             0.393546    1.39357    3.00572           -0.178702   0.172796   0.129374
 H              1.29118   0.841355    3.30623          -0.0631739   0.125562 -0.0439913
 H              2.19421    1.38735    2.99889          -0.0274569  -0.180661  -0.105021
 H              3.09553    0.82652    3.32374          -0.0084605  0.0244668  -0.129115
 H              4.01031    1.38864    3.00689           0.0289581   0.163165  0.0319381
 H             0.411497    2.49031    3.02259          -0.0938992  -0.232554   0.111163
 H              1.29158    1.93743    3.33151            0.117229    0.17878   0.075514
 H              2.18675    2.46833    3.01883           -0.164637   0.085234 -0.0586923
 H              3.08265    1.91877     3.3449           -0.157623 0.00982741 -0.0437614
 H               3.9967    2.47755    3.03536           -0.127999   0.112388 0.00771452
 H             0.421114    3.57592     3.0417           -0.103512 -0.0108253   0.106745
 H              1.31681     3.0229    3.33644            0.053243 -0.0472107  0.0892992
 H              2.20632    3.54262    3.02822          -0.0987259   0.225239  -0.039718
 H              3.10786     2.9956     3.3693            -0.173934   -0.356826 -0.00708389
 H              4.02869    3.57545    3.06165          -0.0857714  -0.250358  -0.270865
 H              0.47833    4.76199    3.08602           -0.111636   0.222107 -0.0265353
 H              1.33363    4.09647    3.31594          -0.0434685  0.0092911 -0.0979834
 H               2.2295    4.70587    3.04898           0.0623252    0.06387 0.00360263
 H              3.10335    4.06513    3.31894          -0.00413428   0.0223151  -0.0219859
 H              3.93548    4.73826    3.06913            0.267526  -0.180715  -0.203878
 H             0.429369  -0.334228    3.94021           -0.203641   0.204448  -0.154501
 H              1.28798   0.285496    4.26316          -0.0813105   0.104899  0.0719168
 H               2.1795  -0.279847    3.92012             0.25962  0.0251162  -0.289247
 H              3.09101    0.26057    4.27829           -0.0271971    -0.19409 0.000861261
 H              3.97088  -0.284176    3.93514           0.0459759 -0.0649223   0.018631
 H             0.380496    0.81713    3.96939            0.119665  0.0128867    0.14898
 H              1.27911     1.3771    4.29285            0.174342 -0.0029807  0.0251222
 H              2.18678   0.851259    3.94676           0.0363626  -0.145476  -0.178984
 H              3.09094    1.36552    4.30255            0.188397  0.0844692   0.135728
 H              3.98779   0.814618    3.97092             0.011983   0.0920509 -0.00741694
 H             0.384198    1.94828    3.96999          -0.0655484  -0.150499   0.118094
 H              1.29042    2.47305    4.28812          -0.0492682  0.0398672  -0.107713
 H              2.17833    1.92362    3.96305            -0.12008 -0.0172869 -0.0779324
 H              3.07896    2.47111    4.31692          -0.0767495  0.0789474   0.210362
 H              4.00749    1.93076    3.98946           -0.181426   0.125595   0.309127
 H             0.407045    3.04604    3.99045           0.0970318  -0.136375  0.0973454
 H              1.34581    3.58717     4.2978           -0.195041  -0.024574  -0.217263
 H               2.1962    3.01598    3.97226             0.15718  -0.178037   -0.11738
 H              3.06923    3.56023    4.31559          -0.0308787  0.0787901  -0.137035
 H              3.99316    3.02876    4.02727          -0.0166225  -0.151365   0.101305
 H             0.464058    4.16846    4.01178            -0.278741 0.000449239   -0.012622
 H              1.35763    4.90948    4.00516            -0.12213     0.1692 -0.0871185
 H               2.2161    4.16858    3.98008            0.142117  0.0985201   0.125604
 H              3.07393    4.96439    3.87359            0.167278   0.127064   0.177955
 H               3.9303    4.16414    4.04405          -0.0895471 -0.0309071   0.012674
