125

 H             0.863916  -0.613715   0.449084            -0.23857   0.112925 -0.0433753
 H              1.33546   0.341315   0.486603            0.0055812 0.000456798  -0.0215282
 H              2.05658  -0.523364   0.606098            0.233308  -0.229565   0.257329
 H              3.04072   0.286587    0.49106           -0.110383   0.129815   0.010975
 H              3.84246  -0.428554   0.296284           0.0845928 -0.0235061  0.0579664
 H             0.429754    0.85246   0.157346           -0.094091  -0.088557  0.0775001
 H              1.32998    1.42884    0.48314          -0.0497984   -0.06087 -0.0299903
 H              2.19312   0.866588   0.163402          -0.0293998 -0.0424837   0.116546
 H              3.10831    1.38912    0.49367            0.146567   0.133342 -0.0207353
 H              3.97055   0.763773   0.168678           -0.176245  0.0673681   -0.14064
 H             0.440703    1.96545   0.162423           -0.107516    0.14496   0.138704
 H              1.31829    2.51994   0.479204          -0.0461391   0.068446  -0.221405
 H              2.22146    1.95867    0.14007           0.0483783  -0.200422 -0.0298488
 H              3.11005    2.49431   0.470295           0.0307431   0.069808 -0.0889903
 H              4.02817    1.92291   0.197263            0.146323  0.0437235 0.00699587
 H             0.411644    3.08349   0.177744          -0.0789595   0.109326   -0.25889
 H              1.28703    3.61848    0.52324            0.0928701    0.096671 0.000693462
 H              2.20346    3.06502   0.150834           -0.086205   0.207029  -0.100877
 H              3.11031    3.58632   0.479404           0.0745459   0.147186 -0.0443771
 H              4.02167    3.04613   0.168229          -0.0842972   0.012795  -0.375778
 H             0.422359    4.19524    0.22921           0.0767568   0.148278 -0.0648214
 H              1.32986    4.75756   0.552689           0.0735013 -0.0819342  0.0393466
 H              2.19299    4.16541   0.219561          -0.0201832 -0.0586888  -0.178725
 H              3.07295    4.73538   0.565448           -0.133949  0.0959215   -0.21619
 H              3.97077     4.1772   0.187359           0.0583818 -0.0774355   0.114417
 H             0.433438   0.269663    1.12563              0.170832     0.182433 -2.52924e-05
 H              1.34156  -0.276098    1.40186           0.0173487  0.0298495  0.0342495
 H              2.21702   0.353635     1.1739           0.0537472 -0.0991272 -0.0175596
 H              3.06834  -0.320962    1.39231           0.0897616   -0.11584 -0.0504946
 H              3.95893   0.268274     1.1439            0.176739 0.00392999  -0.127641
 H             0.421027    1.39778    1.11071             0.23845  -0.156739   0.172999
 H              1.31085   0.870493    1.43162          -0.0228157  0.0553122 -0.0033883
 H              2.21206    1.41169    1.10903           -0.189021 -0.0962655  0.0369409
 H              3.10327   0.865415    1.43803           -0.128717  0.0893845   -0.10232
 H              4.00846     1.3809    1.12371           0.0714183 -0.0473065 -0.0358144
 H             0.433396     2.4873    1.12354            0.043172  0.0670414  0.0252773
 H              1.32304    1.96567    1.45047            0.167062 0.00902056 -0.0849039
 H              2.21857    2.48786    1.10107            0.146204  -0.031049  -0.044278
 H              3.09609    1.95224    1.42612           0.0691366 -0.0768446  0.0890306
 H              3.99199    2.49839    1.12636          -0.0433245 -0.0407611   0.165791
 H             0.372844     3.6146    1.17326              0.20741 -0.00882234  -0.0134099
 H              1.30807    3.03602    1.45037            0.160816  0.0274114 -0.0757991
 H              2.20971    3.59028     1.1311          0.00797389 -0.0555311 -0.0842157
 H              3.10636    3.03283     1.4284           0.0277999  -0.115893  -0.191538
 H              4.03179    3.61799    1.13447           0.0351869  -0.272139  0.0108124
 H             0.435155    4.74109    1.18712            0.263225 -0.0669116   0.322231
 H              1.30467    4.12912    1.47433             0.21222 -0.0095862   0.267131
 H              2.20467    4.70482    1.24013            0.126725  0.0873095   0.136501
 H              3.11508    4.11466    1.44802           -0.101467 -0.0260669  -0.197335
 H              4.01709    4.74653    1.13433            -0.32269 -0.0413876   0.334653
 H             0.501277  -0.306053    2.08767           0.0277846  -0.316769  -0.051266
 H              1.31871   0.334527    2.35459           0.0915669   0.168293   0.135918
 H               2.1872  -0.298367    2.10192           0.0565599  0.0449229   0.153946
 H              3.07231   0.299828    2.32825             0.022283 -0.00877164  -0.0522067
 H              3.93805  -0.324513    2.05824            0.175205  0.0580729   0.120399
 H             0.396691   0.837805    2.07481           0.0228245  0.0256734  0.0890995
 H              1.28755    1.40922    2.38838           0.0747619  0.0503145  -0.088847
 H              2.19903   0.896806    2.07412            0.334457  0.0405957  -0.119979
 H              3.11169    1.40877    2.37106          -0.0979057   0.173738 0.00166095
 H              4.00431   0.835918     2.0631           0.0540407   0.100627 0.00728893
 H             0.393561    1.94311    2.07194           -0.104946  -0.394546   0.258289
 H              1.29372    2.48798    2.40322           -0.368155   0.116454 -0.0118891
 H              2.20238    1.95261    2.06932           -0.183491  -0.114019    0.28938
 H              3.09612    2.47682     2.3844          -0.0469369 -0.0941156   0.197339
 H              3.99808     1.9376    2.06538           0.0498551  -0.090386  -0.166146
 H             0.393616    3.04162    2.09573           0.0165257 -0.0544627 -0.0446364
 H              1.29192     3.5464    2.40033           0.0131253  0.0745425 -0.0209749
 H              2.21086    3.01539    2.06581           0.0266996   0.141526   -0.11419
 H               3.1036    3.56927    2.38454           -0.162206 -0.0787854 -0.0709915
 H              3.97877    3.03271    2.08577          0.000171283   -0.209951   0.0706238
 H             0.411757    4.15411     2.1322             0.17362  -0.162826   0.113695
 H              1.32302     4.7092    2.37996           -0.163173  0.0401829  0.0606307
 H               2.1924    4.08566    2.10824           -0.039419   0.147991 -0.0377477
 H              3.05179    4.67677    2.38158           -0.297051  -0.101915 -0.0562576
 H              3.99938    4.16074    2.09112            0.099586  -0.388568   0.171239
 H             0.412222   0.297465    3.02263          -0.000832684    -0.136657    0.0433971
 H              1.30543  -0.295944    3.23059          -0.0310358 -0.0427648  -0.135082
 H              2.18889   0.306701    2.97954           0.0296475  0.0846178  0.0261193
 H               3.0409  -0.301293    3.20942           -0.087481   0.102693  -0.144289
 H              3.97998   0.259938    2.98408           0.0933434   0.331753  0.0478764
 H             0.386742    1.39646    3.03665           -0.186071   0.112539   0.114288
 H              1.29511   0.841112    3.32626           -0.248444   0.170862 -0.0672407
 H              2.19576    1.41202    3.00823           -0.172744  0.0059614   0.261949
 H              3.08479    0.82804      3.291            0.107203 0.00635923   -0.20393
 H              3.99433    1.36945    3.01168           -0.263253  0.0423922  -0.104782
 H             0.369714    2.48118    3.02374           -0.114851    -0.2616  0.0689768
 H                1.297    1.91894    3.36522            -0.155465 -0.00520607  -0.0258124
 H              2.18482     2.4891     3.0261          -0.0671804  0.0324944  0.0271141
 H              3.10582    1.93666    3.33844          -0.0903909     0.1113  0.0685643
 H               3.9934    2.48146    3.03164           0.0407092   0.138578 0.00901017
 H             0.368048    3.58556    3.05276            0.0172784 -0.00334083    0.283051
 H              1.27649    3.01361    3.37024           -0.134826  0.0823203   0.142804
 H              2.18288    3.55214    3.03678           -0.125915  0.0902188  -0.098665
 H              3.09327    3.02231    3.33675          0.000604335    0.209395      0.3548
 H              3.97715    3.58643    3.03333           0.0935208   -0.21788  0.0423131
 H              0.47225    4.75406      3.082            -0.145024  -0.0683793 -0.00063844
 H              1.30165    4.07846     3.3289             -0.1353  -0.124278  -0.140702
 H              2.18507    4.68334     3.0454            0.192256  -0.256013  -0.064335
 H              3.05561    4.09514    3.32517           0.0594038  -0.144175    0.15908
 H              3.92921    4.70122    3.07125           0.0911242  -0.165229  -0.196699
 H             0.440386  -0.329124    3.92989           -0.109678  -0.186415  -0.201164
 H              1.30812   0.258519    4.24591          -0.0103633   -0.21886 -0.0819676
 H              2.18446  -0.300453    3.89933            0.145215  -0.115899 -0.0439015
 H              3.08846   0.217202    4.22593            0.146888 -0.0861429  -0.366471
 H              3.92496  -0.382854    3.86681            0.036417  -0.242237   -0.12486
 H             0.411177   0.818436    3.99178           -0.154811   0.143689  0.0353408
 H              1.31145    1.35957    4.29187          -0.0398627  0.0439594 -0.0737115
 H              2.20301   0.820618    3.93657           -0.315195   0.286478  0.0252639
 H              3.11197     1.3417    4.27212            0.124798   0.123947 -0.0935705
 H              3.99343   0.765046    3.94937            0.152302 -0.0297573  0.0694564
 H             0.394606    1.93611    4.00772           0.0293815  -0.144979 -0.0687764
 H               1.3071    2.46809    4.33266           -0.0265685   0.0148707 0.000476152
 H              2.21326    1.92002     3.9895           -0.183401   0.134271   0.143133
 H              3.09529    2.45888    4.29787           0.0283165   0.173424  0.0187338
 H              4.01102    1.89909    3.98672           -0.158424   0.124599   0.185665
 H             0.373889    3.05013    4.00113          -0.00929642     0.28899  -0.0226851
 H              1.31184    3.56172    4.32149          -0.000769994    0.0704987     0.206188
 H              2.20147    3.01733    3.97838           -0.0130726    0.119684 -0.00204369
 H              3.06854    3.58196    4.31673             0.19416   0.111589 -0.0841806
 H              3.98351    3.03717    3.98447           0.0522675    0.02042   0.158944
 H             0.442602     4.1633    4.01084           0.0951474  0.0370294 -0.0677423
 H              1.38921    5.02866    3.78236          -0.0194378 -0.0172563  -0.161992
 H              2.19374     4.1517    3.98356           -0.111545  0.0778326  -0.180551
 H              2.91425    5.02426    3.82732              0.2369  -0.026912  0.0329781
 H              3.93189    4.16071    4.00206           0.0755646  0.0173868  -0.155304
