125

 H               0.7698   -0.64056   0.553282            0.156243   0.109251  0.0897885
 H              1.31314   0.306946   0.453969           0.0759434  -0.253078  -0.183997
 H              1.99012  -0.613369   0.630417           0.0306319  0.0129763    0.31473
 H              3.06179   0.288186   0.462058          -0.0731565   0.011005    0.22897
 H              3.64388  -0.643452   0.578446            0.168908   0.122659  0.0456951
 H             0.398633   0.851906   0.145541           -0.159844  -0.183203   0.251521
 H              1.30675    1.43266   0.463122            0.282569  -0.241487 -0.0780861
 H              2.18984   0.869882    0.15113           -0.189039 -0.0436348  -0.134927
 H              3.10541     1.4046   0.473896            -0.12041 -0.0758465 0.00871052
 H              3.99417   0.844546   0.146801            0.162105   0.210314  0.0242367
 H             0.425764    1.98438   0.108828            0.297366 -0.0494776  0.0029131
 H              1.31535    2.52013   0.472623            0.268736 -0.0536866  0.0619499
 H              2.23092    1.96317   0.155837          0.000617157    0.167522   -0.117563
 H              3.12397    2.49688   0.484779          0.00151273  -0.112312  -0.162084
 H              4.01524    1.95026   0.164187            0.158424  0.0333703   0.157418
 H             0.413231    3.08556   0.147571          -0.0603395 -0.0547247  -0.120924
 H              1.31009    3.60719    0.49946            0.149902  -0.158158 -0.0872602
 H              2.23429    3.06917   0.187241          -0.0699841  -0.171455 -0.0933539
 H              3.12454    3.62271   0.501278          -0.0472039 -0.0161267  -0.123833
 H              4.01212    3.09125    0.17105          -0.0654723  -0.062517   0.117925
 H             0.408785     4.2047   0.203553           -0.152362  0.0779977  0.0747887
 H              1.31921     4.7351   0.538121           0.0812634  -0.312503  -0.117931
 H              2.20534    4.19193   0.229183            0.217712   0.112565   0.122519
 H              3.09016    4.73771   0.554509          -0.0465725  0.0452736 -0.0628187
 H              4.03202    4.24282   0.221636            0.233947   0.172508   0.053237
 H             0.420513   0.278224    1.08754           -0.160139 0.00356423  0.0337471
 H              1.32817  -0.239841    1.42501            0.162241   0.155457  -0.125234
 H              2.19485   0.343839    1.10708            0.0159127    0.355095 -0.00422986
 H              3.03508  -0.276999    1.41124            0.194984   0.102381   0.123078
 H              3.96356   0.294818    1.09988          -0.0154794  -0.161322   0.088736
 H              0.39732    1.40625    1.09479           0.0684926 -0.0529216 -0.0886684
 H              1.30687   0.869452    1.41544           -0.204801    0.13225 -0.0603753
 H              2.21607    1.41161    1.13023            -0.198998   -0.050575 -0.00396431
 H              3.10948   0.858323    1.41785          -0.0956988   0.195578 -0.0613471
 H              3.99788    1.40849    1.10598             0.15807  -0.170523  -0.041662
 H             0.411614    2.49221    1.10735           0.0926736 -0.0381911 -0.0188795
 H              1.31968    1.94242    1.43047           -0.115879  -0.328716   0.119849
 H              2.20722    2.50086    1.12149           0.0280062   0.127764  0.0629657
 H              3.10181    1.95243    1.43317            0.213872   0.180142 -0.0509498
 H              4.02609    2.49544    1.12132           -0.297361  -0.161506  -0.095024
 H             0.403414    3.61307    1.13052           0.0255542   0.210668   0.177416
 H              1.30109    3.04027    1.43465           -0.136745   0.251667  -0.032419
 H               2.1928    3.59127    1.14079           -0.341435 0.00535302  0.0140678
 H              3.09943    3.02826    1.42728          -0.0830676  -0.204824  -0.142022
 H              4.04537    3.62991    1.15007            0.048004  -0.178575  0.0218442
 H             0.420977    4.74069    1.21293           -0.166074  0.0414321  -0.098845
 H              1.30825    4.12983     1.4563             0.17946   0.161405 -0.0697444
 H              2.20276    4.74972    1.23556          -0.0454808   0.165446  0.0886736
 H              3.09685    4.11704    1.46182          0.00235724  -0.176196 0.00923344
 H              3.95527    4.77285    1.23431           -0.135908   0.107862 -0.0767308
 H             0.407031   -0.26546    2.05674           0.0635097 -0.0711318 -0.0269377
 H              1.30633   0.312785    2.34939           0.0650682 -0.0585995 -0.0550666
 H              2.18184  -0.271605    2.10703           -0.147351 -0.0687734   0.128259
 H              3.08661   0.300483    2.35167           -0.032268 -0.0442415  -0.204773
 H              3.95108  -0.291098    1.99501           -0.265562  -0.104739   -0.11461
 H              0.40421   0.846988    2.04314          -0.0704865  -0.059508 -0.0445516
 H              1.30416    1.38815    2.38866          -0.0499242   0.105496  -0.166696
 H              2.21135   0.845768    2.06289            -0.12951  0.0235634  -0.146835
 H              3.08239    1.37882    2.37584             0.21628   0.199855  -0.259361
 H              4.00761   0.847399     2.0394           -0.143994   0.160527 -0.0470335
 H             0.413896    1.94873    2.06774            0.206629  -0.099801  -0.147065
 H              1.31798    2.47095    2.39535           0.0753598  -0.113282 0.00300013
 H              2.20128    1.92553    2.08017           -0.204312  0.0879392   0.197773
 H              3.11733    2.48684     2.3883          -0.0518746   0.121054  0.0602613
 H               3.9963    1.94152    2.06588          -0.0502015   0.140683   0.361598
 H             0.411962    3.05016    2.06555           -0.125328   0.100921  -0.222067
 H              1.32147    3.55695    2.39457           0.0415115 -0.0326248  0.0732808
 H              2.19581    3.01377    2.07663              0.1598  0.0281168 -0.0459408
 H              3.06832    3.55892    2.39049          -0.0319943 -0.0302216   0.174414
 H              3.99778     3.0422    2.07639          -0.000434182    0.0364495    -0.058844
 H             0.402837    4.14046    2.13773           0.0678171   0.191847   0.117285
 H              1.30886    4.66954    2.40956           -0.242621 0.00820257   0.301097
 H              2.18656    4.11285     2.0921            0.100131  0.0811051   0.018399
 H              3.05081    4.70741    2.37172           0.0207737  -0.105633  -0.107478
 H              3.96831    4.13683    2.13059          -0.0438698 0.00544666  -0.272604
 H             0.396961   0.267482    3.00458          -0.0522656   -0.14935 -0.0915618
 H              1.29938  -0.315239     3.2406          -0.0384923  -0.060876 -0.0391829
 H              2.19313    0.29791      3.012          -0.0203457  0.0989154 -0.0171915
 H              3.09652  -0.306505    3.25453          -0.0853781  -0.186198   0.139178
 H              4.00512   0.280289    2.95842          -0.0325176   0.113609   0.232267
 H             0.399948    1.37101    3.00344            0.100036   0.212264  0.0596918
 H              1.29641   0.816077    3.31486           -0.282644 -0.0103629  0.0860245
 H              2.21565     1.3817    3.03427           0.0257513 -0.0847448  0.0796372
 H              3.09744   0.817424    3.32441            0.148386  0.0203636  -0.141481
 H              3.99885    1.37405    3.01227           -0.206612  -0.281509   0.115438
 H             0.392897    2.49109    3.02955             0.077812  -0.0774882 -0.00361082
 H              1.30816    1.90421    3.33932            -0.0328947    -0.120282 -0.000503803
 H              2.20902    2.45526    3.02729           -0.143089 -0.0530163  -0.126209
 H              3.12271    1.92789    3.33072           0.0152991  -0.107329  -0.142995
 H              3.99864    2.49322    3.03591          -0.0979968 -0.0767769  -0.006032
 H             0.391381    3.57171    3.06534          -0.0140498  0.0333154   0.184059
 H              1.30116    2.99725    3.35279            0.139788  0.0811978 -0.0353474
 H              2.20333    3.54871    3.04749           0.0503397   0.105252    0.20079
 H              3.10926    3.00563    3.34114          -0.00833362   0.0785311   -0.172881
 H              4.00372    3.58617    3.05526           0.0836442 -0.0713836 -0.0468562
 H             0.453948    4.71241    3.08591            0.177342   0.117824  0.0286364
 H               1.3051    4.05813    3.33652           -0.123715  0.0302676 -0.0813787
 H              2.18335    4.66148    3.03244          -0.0510807 -0.0626788 -0.0396842
 H              3.08236    4.08797    3.32122           -0.170435   0.143187 -0.0582447
 H              3.93112    4.73546    3.06306           -0.130221 -0.0922951 -0.0762325
 H             0.393787  -0.296996    3.92031           0.0642261 -0.0353429   0.054055
 H              1.30238   0.219575    4.22421            0.120871   0.129141 -0.0423996
 H              2.21526  -0.318134    3.88431           0.0204065 -0.0667259 -0.0655848
 H              3.10615   0.217874    4.25477           0.0678527   0.145534  -0.152902
 H              4.02053   -0.29134    3.89375           0.0224138 -0.0329759   0.148536
 H             0.391969   0.805724    3.95768            0.195088  0.0979852  0.0386944
 H               1.3051    1.35155    4.27878            0.295361 -0.0116969 -0.0748271
 H              2.20549   0.800933    3.96655           0.0775858    0.11537    -0.1003
 H              3.11095    1.37606    4.28153           0.0608058  -0.111368  -0.174226
 H              3.99495   0.800459    3.93622           -0.133214 -0.0189748  0.0326008
 H             0.400972    1.93432    3.97468            0.106211   0.103183   0.148246
 H              1.31189     2.4622    4.31682          -0.0417966   -0.15633  -0.018374
 H              2.22177    1.90717    3.97491           -0.261436   0.326502  -0.096628
 H              3.10884    2.45609    4.32108           -0.180583  0.0152303  -0.207727
 H              4.02424    1.91638    3.97353            0.123074  0.0336689  0.0539398
 H             0.423772    3.03971    4.01347          -0.0769944 -0.0965437   0.315636
 H              1.34149    3.57239    4.32761           0.0959251  -0.046343 -0.0419803
 H              2.22333    2.99358     3.9678            0.169513 -0.0528035    0.20106
 H              3.05377    3.57126    4.30004           -0.110629 -0.0665134  0.0304843
 H              3.98794      3.062    4.01997           -0.051763  -0.340193 -0.0864779
 H             0.450734    4.15782    4.03766           0.0813898 -0.0298146 -0.0304444
 H              1.37562    5.02074    3.73018            0.0394963 -0.00877303   0.0319575
 H               2.1973    4.18901    3.99034          -0.0950614    0.12975  0.0998906
 H              2.94685    5.03301    3.78224            0.128017 -0.0324638   0.154817
 H              3.89025    4.18822    4.04412           0.0337052  -0.052531    0.17898
