125

 H             0.012388   0.012388   0.012388          -0.0857728 -0.0857728 -0.0857728
 H               1.10472 -0.00239686 -0.00239686          -0.0816374  -0.116764  -0.116764
 H                  2.2 -0.0388826 -0.0388826          -1.25926e-08   -0.0661872   -0.0661871
 H               3.29528 -0.00239686 -0.00239686           0.0816374  -0.116764  -0.116764
 H              4.38761   0.012388   0.012388           0.0857728 -0.0857728 -0.0857728
 H           -0.00239686     1.10472 -0.00239686           -0.116764 -0.0816374  -0.116764
 H              1.10312    1.10312   0.052297           -0.141671  -0.141671   -0.13704
 H                  2.2    1.07403  0.0457524          5.56279e-08   0.0304275  -0.0859501
 H              3.29688    1.10312   0.052297            0.141671  -0.141671   -0.13704
 H                4.4024     1.10472 -0.00239686            0.116764 -0.0816374  -0.116764
 H           -0.0388826        2.2 -0.0388826            -0.0661872 -1.49338e-08   -0.0661871
 H              1.07403        2.2  0.0457524            0.0304275 6.59708e-08  -0.0859501
 H                  2.2        2.2 -0.0440937          -6.82375e-08 -8.02384e-08    -0.133159
 H              3.32597        2.2  0.0457524           -0.0304276 6.48901e-08  -0.0859502
 H              4.43888        2.2 -0.0388826              0.066187 -1.45463e-08   -0.0661872
 H           -0.00239686     3.29528 -0.00239686           -0.116764  0.0816374  -0.116764
 H              1.10312    3.29688   0.052297           -0.141671   0.141671   -0.13704
 H                  2.2    3.32597  0.0457524           5.587e-08 -0.0304276 -0.0859502
 H              3.29688    3.29688   0.052297            0.141671   0.141671   -0.13704
 H                4.4024     3.29528 -0.00239686            0.116764  0.0816374  -0.116764
 H             0.012388    4.38761   0.012388          -0.0857728  0.0857728 -0.0857728
 H               1.10472      4.4024 -0.00239686          -0.0816374   0.116764  -0.116764
 H                  2.2    4.43888 -0.0388826          -1.26325e-08     0.066187   -0.0661872
 H               3.29528      4.4024 -0.00239686           0.0816374   0.116764  -0.116764
 H              4.38761    4.38761   0.012388           0.0857728  0.0857728 -0.0857728
 H           -0.00239686 -0.00239686     1.10472           -0.116764  -0.116764 -0.0816374
 H              1.10312   0.052297    1.10312           -0.141671   -0.13704  -0.141671
 H                  2.2  0.0457524    1.07403          5.60935e-08    -0.08595   0.0304275
 H              3.29688   0.052297    1.10312            0.141671   -0.13704  -0.141671
 H                4.4024 -0.00239686     1.10472            0.116764  -0.116764 -0.0816374
 H             0.052297    1.10312    1.10312            -0.13704  -0.141671  -0.141671
 H              1.13932    1.13932    1.13932           0.0387316  0.0387316  0.0387317
 H                  2.2    1.13896    1.13896          -2.09073e-07    0.0409805    0.0409804
 H              3.26068    1.13932    1.13932          -0.0387321  0.0387316  0.0387317
 H               4.3477    1.10312    1.10312            0.137039  -0.141671  -0.141671
 H            0.0457524        2.2    1.07403           -0.0859501 6.69577e-08   0.0304275
 H              1.13896        2.2    1.13896             0.0409805 -2.49346e-07    0.0409804
 H                  2.2        2.2    1.04088          2.39775e-07 2.82644e-07  0.00506481
 H              3.26104        2.2    1.13896            -0.0409799 -2.45659e-07    0.0409803
 H              4.35425        2.2    1.07403            0.0859505 6.55411e-08   0.0304274
 H             0.052297    3.29688    1.10312            -0.13704   0.141671  -0.141671
 H              1.13932    3.26068    1.13932           0.0387316 -0.0387321  0.0387317
 H                  2.2    3.26104    1.13896          -2.09818e-07   -0.0409799    0.0409803
 H              3.26068    3.26068    1.13932          -0.0387321 -0.0387321  0.0387316
 H               4.3477    3.29688    1.10312            0.137039   0.141671  -0.141671
 H           -0.00239686      4.4024     1.10472           -0.116764   0.116764 -0.0816374
 H              1.10312     4.3477    1.10312           -0.141671   0.137039  -0.141671
 H                  2.2    4.35425    1.07403          5.62868e-08   0.0859505   0.0304274
 H              3.29688     4.3477    1.10312            0.141671   0.137039  -0.141671
 H               4.4024     4.4024    1.10472            0.116764   0.116764 -0.0816374
 H           -0.0388826 -0.0388826        2.2            -0.0661871   -0.0661872 -7.78088e-09
 H              1.07403  0.0457524        2.2            0.0304275    -0.08595 3.79227e-08
 H                  2.2 -0.0440937        2.2          -6.88449e-08    -0.133159 -5.21631e-08
 H              3.32597  0.0457524        2.2           -0.0304276  -0.0859501 4.68089e-08
 H              4.43888 -0.0388826        2.2              0.066187   -0.0661872 -1.10446e-08
 H            0.0457524    1.07403        2.2           -0.0859501   0.0304275 3.80285e-08
 H              1.13896    1.13896        2.2             0.0409805    0.0409805 -1.51506e-07
 H                  2.2    1.04088        2.2          2.36229e-07  0.00506472 1.87166e-07
 H              3.26104    1.13896        2.2             -0.04098   0.0409804 -1.7928e-07
 H              4.35425    1.07403        2.2            0.0859505   0.0304274 5.00164e-08
 H           -0.0440937        2.2        2.2             -0.133159 -8.32684e-08 -5.24433e-08
 H              1.04088        2.2        2.2           0.00506477 2.86029e-07 1.86442e-07
 H                  2.2        2.2        2.2           -2.3368e-07 -2.80037e-07 -1.97915e-07
 H              3.35912        2.2        2.2          -0.00506529 2.82834e-07 2.16001e-07
 H              4.44409        2.2        2.2              0.133158 -8.25504e-08 -6.53348e-08
 H            0.0457524    3.32597        2.2           -0.0859502  -0.0304276 4.67668e-08
 H              1.13896    3.26104        2.2             0.0409803   -0.0409799 -1.78545e-07
 H                  2.2    3.35912        2.2          2.39083e-07 -0.00506534 2.14657e-07
 H              3.26104    3.26104        2.2           -0.0409798  -0.0409798 -1.9958e-07
 H              4.35425    3.32597        2.2            0.0859506  -0.0304276 5.57389e-08
 H           -0.0388826    4.43888        2.2            -0.0661872     0.066187 -1.09995e-08
 H              1.07403    4.35425        2.2           0.0304274  0.0859505 4.9803e-08
 H                  2.2    4.44409        2.2          -6.98192e-08     0.133158 -6.52317e-08
 H              3.32597    4.35425        2.2           -0.0304276   0.0859506 5.57553e-08
 H              4.43888    4.43888        2.2             0.0661871    0.0661871 -1.31182e-08
 H           -0.00239686 -0.00239686     3.29528           -0.116764  -0.116764  0.0816374
 H              1.10312   0.052297    3.29688           -0.141671   -0.13704   0.141671
 H                  2.2  0.0457524    3.32597          5.61798e-08  -0.0859501  -0.0304276
 H              3.29688   0.052297    3.29688            0.141671   -0.13704   0.141671
 H                4.4024 -0.00239686     3.29528            0.116764  -0.116764  0.0816374
 H             0.052297    1.10312    3.29688            -0.13704  -0.141671   0.141671
 H              1.13932    1.13932    3.26068           0.0387316  0.0387316  -0.038732
 H                  2.2    1.13896    3.26104          -2.10525e-07    0.0409804     -0.04098
 H              3.26068    1.13932    3.26068          -0.0387321  0.0387316  -0.038732
 H               4.3477    1.10312    3.29688            0.137039  -0.141671   0.141671
 H            0.0457524        2.2    3.32597           -0.0859501 6.85196e-08  -0.0304276
 H              1.13896        2.2    3.26104             0.0409804 -2.56117e-07     -0.04098
 H                  2.2        2.2    3.35912          2.38858e-07 2.89169e-07 -0.00506525
 H              3.26104        2.2    3.26104            -0.0409799 -2.56045e-07   -0.0409799
 H              4.35425        2.2    3.32597            0.0859506 6.91301e-08  -0.0304276
 H             0.052297    3.29688    3.29688            -0.13704   0.141671   0.141671
 H              1.13932    3.26068    3.26068           0.0387316 -0.0387321  -0.038732
 H                  2.2    3.26104    3.26104          -2.14082e-07   -0.0409798   -0.0409799
 H              3.26068    3.26068    3.26068          -0.0387321 -0.0387321 -0.0387321
 H               4.3477    3.29688    3.29688            0.137039   0.141671   0.141671
 H           -0.00239686      4.4024     3.29528           -0.116764   0.116764  0.0816374
 H              1.10312     4.3477    3.29688           -0.141671   0.137039   0.141671
 H                  2.2    4.35425    3.32597          5.80532e-08   0.0859506  -0.0304276
 H              3.29688     4.3477    3.29688            0.141671   0.137039   0.141671
 H               4.4024     4.4024    3.29528            0.116764   0.116764  0.0816374
 H             0.012388   0.012388    4.38761          -0.0857728 -0.0857728  0.0857728
 H               1.10472 -0.00239686      4.4024          -0.0816374  -0.116764   0.116764
 H                  2.2 -0.0388826    4.43888          -1.28658e-08   -0.0661872     0.066187
 H               3.29528 -0.00239686      4.4024           0.0816374  -0.116764   0.116764
 H              4.38761   0.012388    4.38761           0.0857728 -0.0857728  0.0857728
 H           -0.00239686     1.10472      4.4024           -0.116764 -0.0816374   0.116764
 H              1.10312    1.10312     4.3477           -0.141671  -0.141671   0.137039
 H                  2.2    1.07403    4.35425          5.77673e-08   0.0304274   0.0859504
 H              3.29688    1.10312     4.3477            0.141671  -0.141671   0.137039
 H               4.4024    1.10472     4.4024            0.116764 -0.0816375   0.116764
 H           -0.0388826        2.2    4.43888           -0.0661872 -1.5677e-08   0.0661871
 H              1.07403        2.2    4.35425            0.0304274 7.01986e-08   0.0859504
 H                  2.2        2.2    4.44409          -7.25818e-08  -8.7462e-08     0.133158
 H              3.32597        2.2    4.35425           -0.0304276 7.04418e-08   0.0859505
 H              4.43888        2.2    4.43888             0.0661871 -1.60074e-08    0.0661871
 H           -0.00239686     3.29528      4.4024           -0.116764  0.0816374   0.116764
 H              1.10312    3.29688     4.3477           -0.141671   0.141671   0.137039
 H                  2.2    3.32597    4.35425          5.89341e-08  -0.0304276   0.0859506
 H              3.29688    3.29688     4.3477            0.141671   0.141671   0.137039
 H               4.4024    3.29528     4.4024            0.116764  0.0816374   0.116764
 H             0.012388    4.38761    4.38761          -0.0857728  0.0857728  0.0857728
 H              1.10472     4.4024     4.4024          -0.0816375   0.116764   0.116764
 H                  2.2    4.43888    4.43888          -1.34659e-08    0.0661871    0.0661871
 H              3.29528     4.4024     4.4024           0.0816374   0.116764   0.116764
 H              4.38761    4.38761    4.38761           0.0857728  0.0857728  0.0857728
