125

 H              0.78215  -0.670981     0.5807            0.077395  0.0139419 -0.0241258
 H              1.32281   0.278642   0.449228          -0.0130898  -0.401741 -0.0857349
 H              2.13035  -0.542346   0.594722            0.015523  0.0322009  -0.119029
 H              3.07903   0.281477   0.450282           -0.384319   0.126818   0.125966
 H              3.69706  -0.627673    0.50585            0.153505   0.060263  0.0531995
 H             0.426253   0.835078   0.130931           0.0616035  -0.174404   0.108899
 H              1.31383    1.42478   0.450314            0.136007   0.165749   0.331726
 H              2.21453   0.860359   0.142308            0.021963  -0.129944  0.0767438
 H              3.08124    1.40439   0.489579            0.098251 -0.0989695   0.211666
 H              3.99604   0.833236   0.126668            0.103981   0.176952  0.0357265
 H             0.405956    1.97213   0.160211          0.00278509  -0.320642  0.0020294
 H              1.30443    2.52768   0.474237             0.140621   0.0687218 -0.00976843
 H               2.2038    1.97865   0.156993            0.225278  -0.113139  -0.136626
 H              3.09176    2.51192   0.473589           -0.220648 -0.0656484 -0.0931939
 H              3.97616    1.95834   0.123692          -0.0551905  0.0217245  -0.119268
 H             0.362484    3.08111   0.231894           0.0368256  0.0033303  -0.062598
 H               1.2888    3.60945    0.51645            -0.22011    0.03806   0.130369
 H              2.20686    3.07899    0.15474           -0.094149  0.0419797   0.183393
 H              3.09077    3.61921    0.50176            0.134287   0.168417  0.0216769
 H              3.98917    3.06895   0.172059          0.00327894 -0.0876101  -0.125284
 H             0.419936    4.20835   0.211263            0.222009  0.0232408  0.0341929
 H              1.33358    4.74379   0.544993           0.0423041   0.280394  0.0724291
 H              2.19552    4.16204   0.197353           -0.084132  -0.279586  -0.150244
 H              3.10191    4.70001   0.522139           -0.064251  0.0187376  -0.238832
 H              4.01674    4.17791   0.202198            0.229144 -0.0577244   0.151887
 H             0.448111   0.266823    1.08035            0.109041   0.141093    0.17239
 H              1.36493  -0.264795    1.40332           0.0521871   0.208028  -0.130239
 H              2.19951   0.360972    1.11656          -0.0589559    0.21217  0.0129955
 H              3.03112  -0.270856    1.38018           0.0258842 -0.0919773   -0.19396
 H              3.98843   0.266602    1.12028           0.0204685    0.19241    0.11099
 H             0.420667      1.384    1.09515           -0.320408  -0.255091 -0.0686483
 H              1.31607   0.853333     1.4106          -0.0928054  0.0648906  0.0611001
 H              2.20144    1.42066    1.10115           0.0232247   0.150761  0.0460607
 H              3.09522   0.871014    1.41259            0.105547   0.117714  0.0114396
 H              3.99581    1.39867     1.0902          -0.0828474 -0.0101329  -0.103394
 H             0.395119    2.48331    1.12193            0.162464   0.106011   0.237618
 H              1.31366    1.95685    1.42891           0.00884626   0.0551756 -0.00322952
 H              2.21024     2.5146    1.11803           0.0118846  0.0181937   0.126528
 H              3.11293    1.95481    1.43565           -0.227385 -0.0273066   0.053758
 H              3.99028     2.4977    1.11927            0.185106 0.00565462  0.0613216
 H             0.387162    3.63005    1.15825           -0.263926 -0.0328116   0.110098
 H              1.30082    3.04139     1.4367            0.196809  0.0706125  -0.176687
 H              2.19883    3.60146    1.12884           -0.125922   0.168555   0.132807
 H              3.10412    3.04121     1.4576          -0.0148743   0.204429  -0.123342
 H               4.0092    3.59413    1.14164          -0.0651507  0.0786023 -0.0911559
 H             0.428718    4.76861    1.19464          -0.0764087    0.17686 -0.0544325
 H              1.30509    4.14036    1.46054           -0.161231   0.218774   0.169532
 H              2.21886    4.68097    1.20023          -0.0461316  0.0823429 -0.0997401
 H              3.10481    4.11748    1.47595          -0.0119575  -0.207588 -0.0830175
 H              3.98426     4.7351    1.18698            0.147077 -0.0674121   0.019064
 H              0.45487  -0.286238    2.01751          -0.0889752  -0.325893    0.06946
 H              1.31244   0.294836    2.35707           -0.210389   0.227073  -0.108251
 H              2.18624  -0.272529     2.0756            0.366009 -0.0990201   0.108914
 H              3.08012   0.330774    2.34367            0.103684   -0.19443 -0.0505961
 H              3.88395  -0.315852    2.06831            0.234878  0.0844119   0.185546
 H             0.411515   0.847726    2.05093           0.0381339   0.105312   0.109791
 H              1.30895    1.38506    2.37377           -0.117494  -0.082809 -0.0386716
 H              2.19461   0.863422    2.05204            0.315262  0.0290031   0.024679
 H              3.10138    1.40631    2.37872          -0.0746086  0.0007558   0.182469
 H              3.99593   0.839371    2.04282            -0.138975  -0.0130009 -0.00832158
 H             0.404872    1.93586    2.06252           -0.146063    0.12707  0.0505649
 H              1.30035    2.47484    2.39215              0.1931  0.0823823  0.0386923
 H              2.20212    1.94067    2.06873          -0.0887539  -0.250235  0.0995718
 H              3.11224    2.47795    2.39244           0.0556031 -0.0647093  -0.097586
 H              4.01532    1.93688    2.07484           0.0790035   -0.18372   0.121838
 H             0.392334     3.0277    2.10832           0.0547049   0.107082  0.0758142
 H              1.30218    3.56831    2.39889            0.242947   -0.11714    0.12646
 H              2.19418    3.02437    2.07697           -0.251485   0.129261 -0.0678539
 H              3.12554    3.55117    2.40377            0.130296 -0.0808469  -0.157035
 H              4.02666    3.03962    2.09013          -0.0722024   0.187579  -0.233459
 H             0.407595    4.13843    2.11912           -0.102917 0.00421784 0.00268923
 H              1.33556    4.69336     2.3935           -0.109892  0.0739088 -0.0896444
 H              2.19197    4.08507    2.09523            0.128785  0.0273395 0.00323197
 H              3.05837    4.69233    2.39266            -0.126857 -0.00223059   -0.254818
 H              3.99828    4.14937    2.12819           -0.100733   0.048719  0.0718579
 H             0.378829   0.265776    2.96921           0.0436914  0.0359832 -0.0316196
 H              1.29809  -0.270181    3.27084            0.103155  0.0999877 -0.0129624
 H              2.20189   0.295725    2.98554           0.0514414  -0.263207  -0.236983
 H              3.10812  -0.290412    3.24049          -0.0314433 -0.0353995  -0.181271
 H              4.01991   0.266238    2.98159            0.161818  0.0203335   -0.11285
 H              0.39002    1.38431    3.01197           -0.286397   0.176551  -0.339228
 H              1.28776   0.812328    3.31404           0.0794073   0.274732    -0.1386
 H              2.20234    1.38937    3.01404          -0.0847424  -0.117393 -0.0419433
 H              3.10271   0.818179    3.31253           0.0956965   0.105075   0.222749
 H              4.00864    1.37855    3.01675           -0.100431  0.0983738  0.0122285
 H              0.37087    2.47801    3.03241          -0.0872296   0.143913  0.0216742
 H              1.30364    1.90635    3.32852           -0.0335272 -0.00605871   0.0114112
 H              2.20258    2.47622    3.01798            0.181814  -0.284773   0.217983
 H              3.10637    1.93307    3.32977           0.0946975  -0.167909  0.0550746
 H              4.00085    2.48924    3.03206           0.0156192  -0.130343  0.0497364
 H               0.4084    3.58956    3.06319           -0.109583  -0.105731 0.00447442
 H               1.3024    3.00257    3.34461            0.117653 -0.0626732  0.0930024
 H              2.20414    3.55506    3.00994          -0.0658331 -0.0303399  -0.249687
 H              3.09193    3.01843     3.3529           -0.059909 -0.0355652  0.0990748
 H              4.00885    3.58365    3.06632           -0.111502 -0.0320536  0.0345092
 H             0.474243    4.72051    3.08191            0.140173 -0.0406577 -0.0288791
 H              1.33343    4.07408     3.3362           0.0929898   0.131645  0.0674025
 H              2.18993    4.69426    3.05781            0.301732  0.0112375  0.0147584
 H              3.06782    4.08682    3.34722            -0.153991 -0.00509288    0.165467
 H              3.90019    4.72752    3.08051          -0.0883365 -0.0941898  0.0384811
 H             0.383719  -0.303459    3.89704           0.0884703  -0.027108   0.184302
 H              1.28734   0.256179    4.24821           -0.118138  0.0386862  -0.188395
 H              2.20838  -0.274663    3.91902           -0.232549  -0.110172  -0.181444
 H              3.09385   0.251984    4.25908          -0.00813211   -0.157569  -0.0259549
 H              3.97669   -0.30975     3.9066          -0.0783821  -0.231078  0.0850707
 H             0.394898   0.799265    3.96928          -0.0984732   0.161945   0.106336
 H              1.31543    1.34491    4.28203           -0.126382  -0.151913 -0.0486732
 H              2.19988    0.83003    3.95203           -0.121697  0.0520215  0.0888403
 H               3.1067    1.36519    4.29091           -0.127253   0.196144  -0.189767
 H              3.99007    0.80849    3.95876            0.372753 -0.0118424  0.0775027
 H             0.409086    1.93186      3.984            -0.14814  0.0104563  0.0797775
 H              1.30814    2.45428    4.30486          -0.0538032   -0.14405 -0.0513089
 H              2.20158    1.92455     3.9622           -0.157199  0.0222163 -0.0801729
 H              3.09809    2.47795    4.30946            -0.13945   0.254656 -0.0490248
 H              4.02077    1.91746     3.9819           0.0581771 -0.0998356 -0.0150993
 H             0.409705    3.02984    3.99542          0.00075755 -0.0659743 -0.0655692
 H              1.32045    3.56384    4.32131            -0.160037  -0.0396693 0.000154796
 H              2.19774    3.02266    3.97339          -0.0637169  0.0400478  0.0901176
 H              3.05324    3.58168    4.31639            0.204243  0.0737811 -0.0422795
 H              3.97917    3.04573    4.01455          -0.0599669  -0.102063   0.148412
 H             0.475796    4.20034    4.04824            0.109203  -0.125717   0.108782
 H              1.36936    5.00495    3.85557           0.0977442  -0.177516  0.0401028
 H              2.18253    4.15336    4.00588           0.0386219 -0.0205645  -0.145754
 H              2.98276    5.01499     3.8194          -0.0730988 -0.0357816  -0.321062
 H              3.91655    4.17435    4.02854            0.147015  0.0532931 -0.0772948
