125

 H           -0.00562254 -0.00563071 -0.00561238            0.041851  0.0418024  0.0419093
 H              1.09626 0.00753779 0.00746394           0.0822396 -0.0863169 -0.0867728
 H              2.19996 0.00441466 0.00445994          -0.000242212     0.310828      0.31118
 H              3.30367 0.00751419 0.00745344          -0.0827386  -0.086365 -0.0867458
 H               4.40556 -0.00564843 -0.00563467          -0.0422767  0.0417292  0.0418118
 H            0.0075151    1.09625 0.00747632          -0.0864769  0.0821865 -0.0867144
 H              1.09162    1.09164  0.0806478           0.0953962  0.0955459   0.138129
 H              2.20015    1.09387  0.0610395          0.000980524    0.119181    0.282567
 H              3.30866    1.09162  0.0807501          -0.0937696  0.0954638   0.138901
 H              4.39274    1.09623 0.00759238           0.0881653  0.0821391 -0.0860846
 H           0.00443945    2.19996  0.0044631              0.310985 -0.000289105     0.311163
 H               1.0939    2.20018  0.0610404            0.119353  0.0011691   0.282536
 H              2.19983     2.1998  0.0450841          -0.00111285 -0.00132193    0.234313
 H              3.30577    2.20018  0.0610834           -0.121182 0.00116296   0.282409
 H              4.39529    2.19996 0.00448354             -0.312675 -0.000286762     0.310926
 H           0.00748944    3.30366 0.00746107          -0.0865204  -0.082782 -0.0866974
 H              1.09159    3.30869  0.0807761           0.0953069 -0.0936049   0.139084
 H              2.20015    3.30574  0.0610841          0.000983904   -0.121354    0.282377
 H              3.30869    3.30871  0.0808818          -0.0936744 -0.0935326   0.139875
 H              4.39277    3.30368 0.00757639           0.0882142 -0.0827301 -0.0860722
 H            -0.0056443     4.40555 -0.00563832           0.0417603 -0.0423105  0.0417967
 H              1.09624    4.39277 0.00760076           0.0821793  0.0883295 -0.0860325
 H              2.19996    4.39527 0.00448691          -0.000243217    -0.312832     0.310911
 H              3.30369    4.39279 0.00758807          -0.0826802  0.0883653  -0.086016
 H               4.40558     4.40557 -0.00566005          -0.0421878 -0.0422335  0.0417018
 H           0.00749192 0.00752683    1.09627          -0.0865832 -0.0863651  0.0823035
 H              1.09161  0.0804831    1.09158           0.0953957   0.137159  0.0952194
 H              2.20016  0.0612295    1.09392          0.000982433    0.283636    0.119522
 H              3.30867  0.0806127    1.09157          -0.0937564   0.138083  0.0951901
 H              4.39276 0.00763057    1.09625           0.0882749  -0.085813  0.0822297
 H            0.0805619    1.09164    1.09158            0.137627  0.0955518  0.0952242
 H              1.15284    1.15274    1.15295            -0.17823  -0.178943  -0.177474
 H              2.19945    1.13898    1.13876          -0.00386601    0.335904    0.334437
 H              3.24606     1.1528    1.15298             0.17083  -0.178834  -0.177584
 H               4.3185    1.09168    1.09164           -0.143336  0.0955096  0.0952563
 H            0.0611344    2.20019    1.09393            0.283064 0.00117507   0.119523
 H              1.13887    2.19935    1.13876             0.335141 -0.00461813    0.334416
 H              2.20059    2.20071     1.1141           0.0039359 0.00467822   0.146463
 H              3.26232    2.19935    1.13882            -0.327068 -0.00459595    0.334465
 H              4.33987    2.20018    1.09395           -0.277013 0.00116781   0.119476
 H            0.0807118     3.3087    1.09157            0.138704 -0.0935927  0.0951786
 H              1.15291    3.24595    1.15299           -0.178139   0.170104  -0.177557
 H              2.19945    3.26244    1.13882          -0.0038797  -0.326303   0.334443
 H              3.24599    3.24589    1.15302            0.170711   0.170037  -0.177644
 H              4.31835    3.30865    1.09162           -0.144432 -0.0935632  0.0952034
 H           0.00761721    4.39278    1.09624           -0.085914  0.0883884  0.0822199
 H              1.09166     4.3184    1.09164           0.0953554   -0.14398  0.0952451
 H              2.20016    4.33997    1.09395          0.000987561   -0.276439    0.119478
 H              3.30862    4.31827    1.09163          -0.0937109  -0.144873  0.0952087
 H              4.39264    4.39267    1.09622           0.0876133  0.0878208  0.0821495
 H           0.00443347 0.00440944    2.19997              0.311017     0.310829 -0.000184568
 H              1.09389  0.0612349    2.20012             0.119343    0.283699 0.000764697
 H              2.19983  0.0449178    2.19986           -0.00111915     0.233331 -0.000901589
 H              3.30578  0.0612446    2.20013            -0.121184    0.283384 0.000824632
 H               4.3953 0.00444274    2.19997             -0.312704     0.310664 -0.000206959
 H            0.0611324    1.09386    2.20012             0.283122    0.119159 0.000764991
 H              1.13887    1.13899    2.19957             0.335169    0.335961 -0.00307368
 H              2.20059     1.1139    2.20049          0.00392637   0.145268 0.00321184
 H              3.26233    1.13901    2.19954            -0.327102    0.335767 -0.00327744
 H              4.33988     1.0939    2.20013            -0.277062     0.11919 0.000847376
 H            0.0450102     2.1998    2.19986             0.233877 -0.00134492 -0.00090222
 H              1.11401    2.20071    2.20048            0.145931 0.00471707 0.00320679
 H              2.19943    2.19932    2.19952          -0.00318209 -0.00380504 -0.00268303
 H               3.2849    2.20071    2.20052           -0.152708 0.00469732 0.00343255
 H              4.35405     2.1998    2.19985             -0.239442  -0.00133982 -0.000991913
 H            0.0611496    3.30574    2.20013             0.282775   -0.121372 0.000823577
 H               1.1389    3.26244    2.19954              0.33498   -0.326273 -0.00326857
 H               2.2006    3.28479    2.20052          0.00394804  -0.153371  0.0034262
 H               3.2623    3.26241    2.19951            -0.326872   -0.326117 -0.00345083
 H              4.33986     3.3057    2.20014            -0.276686   -0.121392 0.000896926
 H           0.00447128    4.39527    2.19997             0.310808   -0.312859 -0.00020665
 H              1.09393    4.33998    2.20013             0.119368   -0.276423 0.000846028
 H              2.19983    4.35395    2.19985           -0.00112658    -0.239986 -0.000991674
 H              3.30573    4.33996    2.20014             -0.12122   -0.276134 0.000897006
 H              4.39526    4.39524    2.19997             -0.312508    -0.312684 -0.000225286
 H           0.00747582 0.00751326    3.30367          -0.0866084 -0.0863757 -0.0826841
 H              1.09159  0.0805787    3.30864           0.0953368   0.137852 -0.0939478
 H              2.20016   0.061251    3.30581          0.000988288    0.283452   -0.121004
 H              3.30869  0.0807155    3.30867          -0.0936871   0.138825  -0.093819
 H              4.39278 0.00761687    3.30369           0.0883024 -0.0858166 -0.0826563
 H            0.0806627    1.09163    3.30863             0.13835   0.095503 -0.0939505
 H              1.15289    1.15278    3.24618           -0.178162  -0.178918     0.1716
 H              2.19945    1.13902    3.26222          -0.00387312    0.335831   -0.327835
 H              3.24601    1.15284    3.24609            0.170753  -0.178815   0.171311
 H              4.31839    1.09167     3.3086           -0.144124  0.0954616 -0.0938417
 H            0.0611487    2.20019    3.30581            0.282838 0.00119331  -0.121007
 H               1.1389    2.19934    3.26221             0.335015 -0.00467019   -0.327822
 H               2.2006    2.20072    3.28499          0.00394565 0.00474247  -0.152176
 H               3.2623    2.19934    3.26222            -0.326899 -0.00465971   -0.327422
 H              4.33987    2.20019    3.30575           -0.276729 0.00119155  -0.121107
 H            0.0808219    3.30872    3.30867            0.139489 -0.0935127  -0.093807
 H              1.15296    3.24589    3.24608           -0.178073   0.169982   0.171302
 H              2.19945    3.26242    3.26222          -0.00389591   -0.326081    -0.32741
 H              3.24593    3.24583    3.24599            0.170618   0.169898   0.171034
 H              4.31823    3.30867    3.30864           -0.145295 -0.0934737 -0.0937056
 H           0.00760247     4.3928    3.30369          -0.0859253  0.0884228 -0.0826462
 H              1.09165    4.31828     3.3086            0.095296  -0.144807 -0.0938308
 H              2.20016    4.33997    3.30575          0.000997853   -0.276114   -0.121109
 H              3.30864    4.31815    3.30863          -0.0936322  -0.145768  -0.093709
 H              4.39266    4.39269    3.30371           0.0876352  0.0878584 -0.0826148
 H           -0.00563802 -0.00564703     4.40556           0.0417848  0.0417317 -0.0422333
 H              1.09624 0.00762612    4.39273           0.0821942 -0.0858382  0.0880868
 H              2.19996 0.00443681    4.39533          -0.000245293     0.310661    -0.312541
 H              3.30368 0.00760987    4.39276          -0.0827013 -0.0858493  0.0881629
 H               4.40557 -0.00566669     4.40558          -0.0422182  0.0416516  -0.042176
 H           0.00760118    1.09623    4.39272          -0.0860126  0.0821361  0.0880288
 H              1.09166    1.09169    4.31861           0.0953868  0.0955506  -0.142656
 H              2.20016    1.09389    4.33978          0.000994321    0.119164   -0.277618
 H              3.30863    1.09167    4.31845          -0.0937192  0.0954675  -0.143756
 H              4.39266    1.09622    4.39263           0.0877162  0.0820844  0.0875418
 H           0.00446442    2.19996    4.39532              0.310834 -0.000296647    -0.312524
 H              1.09392    2.20019    4.33978            0.119353 0.00120024   -0.27759
 H              2.19983    2.19979    4.35412          -0.00113722 -0.00136665   -0.239006
 H              3.30574    2.20019     4.3398           -0.121224  0.0011987  -0.277111
 H              4.39526    2.19996    4.39528              -0.31254 -0.000296417    -0.312423
 H           0.00758205    3.30367    4.39275          -0.0860218  -0.082749  0.0881108
 H              1.09164    3.30866    4.31843           0.0952948 -0.0935399  -0.143939
 H              2.20016     3.3057     4.3398          0.00100115  -0.121413  -0.277085
 H              3.30865    3.30868    4.31827          -0.0936179 -0.0934612  -0.145026
 H              4.39268    3.30369    4.39266           0.0877368 -0.0826965  0.0876113
 H           -0.00566193     4.40557     4.40558           0.0416866 -0.0422555 -0.0421608
 H              1.09622    4.39269    4.39262           0.0821293  0.0878963  0.0874853
 H              2.19996    4.39524    4.39527          -0.000247951    -0.312713    -0.312405
 H               3.3037     4.3927    4.39265          -0.0826414  0.0879033  0.0875549
 H              4.40559    4.40559     4.4056          -0.0421243 -0.0421749 -0.0421001
