125

 H             0.716198  -0.596205   0.544613          -0.0365296   0.059214  0.0225503
 H              1.34421   0.289972   0.439492            0.259778 -0.0997688  -0.109551
 H              2.25109  -0.607329   0.678299           -0.114316  0.0651893  -0.105116
 H              3.04191   0.290174   0.464378           0.0264262  -0.040771 -0.0585291
 H              3.62912  -0.618052   0.489552           -0.141135  -0.185318   0.123019
 H             0.396075   0.845183   0.155522          0.00235719   0.200753   0.220536
 H               1.2868    1.40637   0.450312            0.0643602 -0.00756999  -0.0983655
 H              2.17849   0.871401    0.12107           0.0620869   0.148691 -0.0157352
 H              3.08923    1.41433   0.465425           -0.276855   0.181876   0.339797
 H              3.96157    0.79912   0.169665           -0.210067   0.206433 -0.0508643
 H             0.410681    1.96007   0.125207          0.00810318  -0.151295 -0.0265988
 H              1.29201    2.51811   0.476393           0.0643284  -0.077073   0.110185
 H              2.17977    1.96906   0.131438             0.14895  0.0135949  0.0730309
 H              3.09763    2.49207   0.472859            0.165324  -0.128508  0.0972555
 H              4.03453    1.94243   0.147687          -0.00753972    0.126482     0.12146
 H             0.372025    3.08489   0.185847           0.0474951  0.0880425   -0.13299
 H              1.30329    3.62917   0.475419           0.0776731 -0.0362399   0.180544
 H               2.2101     3.0735    0.14956           -0.200727 -0.0106856  -0.134682
 H              3.09923     3.5979   0.515646           0.0317859   0.111165  0.0608221
 H              3.99935    3.05891   0.186641            0.178133   0.102655    0.27512
 H             0.408223    4.19377   0.180245           -0.026769 -0.0498709  -0.112852
 H              1.33137    4.73212   0.537955           -0.0912393 -0.00682201    0.161993
 H              2.21428    4.19259   0.221724           -0.127794   -0.12907  -0.103699
 H              3.09183    4.75251   0.549039          -0.0119926  0.0280253  0.0840408
 H              4.01777    4.18504   0.226048           -0.163417   0.106791  0.0779429
 H             0.432026   0.304253    1.10531          -0.00470672   -0.175661   -0.101802
 H              1.34729  -0.246097    1.39275           -0.122924  -0.231561   0.128075
 H              2.20374   0.359517    1.12448            0.045833   0.147386 -0.0752404
 H              3.05132  -0.286887    1.40634           -0.147944  0.0291389  -0.319974
 H               3.9492   0.251346    1.09824            0.140502  -0.172027  -0.187646
 H             0.397963    1.39122    1.12418            0.264246  0.0619576  -0.224829
 H              1.30798   0.862675    1.41689          -0.0591058   -0.25727  0.0942255
 H               2.1968    1.41698    1.09487           0.0113899   0.138658 -0.0136867
 H              3.10646   0.851357    1.42575           0.0531441  -0.112202 -0.0363501
 H              4.00146    1.40102    1.10131           0.0152351 -0.0804883 -0.0616791
 H             0.383741    2.48136    1.12287            0.084847  -0.389695  -0.166126
 H              1.29227    1.95107    1.43188           -0.164198    0.18433 -0.0979166
 H              2.19346    2.50248    1.10056            0.106848  0.0957333  -0.269222
 H              3.09916    1.95069    1.42861           0.0322079 -0.0820107   0.291583
 H              3.99972    2.49051      1.116           -0.107249   0.318377  0.0757448
 H             0.422968    3.59772    1.13904            0.280558   0.141002  0.0544944
 H              1.32178    3.04045    1.43795            0.121833  -0.291438   0.242949
 H              2.20876    3.59938    1.13456           0.0314469 -0.0831584    0.01753
 H              3.10342    3.02716    1.44274            0.288928   0.198443  0.0819775
 H              3.99877    3.60822     1.1711           -0.277686  0.0432345  -0.372405
 H             0.423798    4.73622    1.17051          -0.0638002  -0.124934  0.0415492
 H              1.30844    4.13787    1.43307           0.0993208  -0.137277 -0.0862254
 H              2.21518    4.74494     1.2111           -0.109087   0.120591  -0.056035
 H              3.09349    4.12827    1.46538           -0.149548   0.130079 -0.0100341
 H              3.97081    4.72198    1.20616           -0.085485  -0.166777   0.098721
 H             0.458328  -0.274493    2.04452            0.0569947    0.107845 -0.00427708
 H              1.31237    0.30107    2.36156           -0.013189   0.159433  -0.186079
 H              2.22055   -0.25293    2.07156            0.169437  0.0133102  0.0206707
 H                3.102   0.308206    2.35427           -0.103209  0.0688324  0.0297682
 H              3.94179  -0.308158    2.05602           0.0119819  -0.193766  0.0879386
 H             0.398559   0.847406    2.05187          -0.0464963   0.249266  0.0007399
 H              1.30072    1.40009    2.37042            0.083411  -0.102165   -0.13435
 H              2.20778   0.858018    2.07045             0.10011   0.064426 -0.0183243
 H              3.10037    1.39301    2.36632           -0.283951  -0.333698 -0.0214114
 H              4.02364    0.83587     2.0389             -0.2163   -0.24296 -0.0984345
 H             0.395803     1.9515    2.08175           -0.116626  -0.126022  -0.108987
 H              1.30685    2.47955    2.39298             0.10777   0.062214  0.0264975
 H              2.20059    1.94549    2.05958            0.207704  -0.259992   -0.11577
 H              3.09526    2.48229     2.3871            0.203093  0.0174368  0.0476192
 H              3.98717    1.94131    2.06455           0.0859459  -0.155525   0.056144
 H              0.40845    3.03916    2.08528           -0.210781  -0.152381  -0.051501
 H              1.29937     3.5768    2.38424           -0.110042  0.0420441  0.0413244
 H              2.20816    3.03162     2.0619           -0.249672  -0.142838   0.144655
 H              3.10373    3.56821    2.39854            0.286553   0.223772 -0.0692293
 H              4.00182     3.0274    2.10543            0.196964 -0.0465659 -0.0423777
 H             0.407314    4.14544    2.10443            0.165983   0.321806  0.0866986
 H              1.30548    4.70104     2.3934           0.0146642   -0.10649   0.157763
 H              2.18945    4.12029    2.10603          -0.0842989  0.0263833   0.081018
 H              3.10255    4.68215    2.39652          -0.0405417  0.0523865  -0.120352
 H              3.98874     4.1291    2.13413          -0.0762301  -0.130397  -0.282227
 H             0.407323   0.285457    3.00139           -0.180279  0.0933631  -0.186521
 H              1.32819  -0.299389    3.27648            -0.18878  0.0389105 0.00823653
 H              2.20371   0.296107     2.9906          -0.0822571  0.0596123 0.00247994
 H              3.09938  -0.277038    3.24715           0.0168595 -0.0353932  -0.020708
 H              4.01242   0.289515      2.984          -0.0257809 -0.0486204  -0.117597
 H             0.399297    1.36399     3.0131           0.0386646    -0.2252 -0.0966139
 H              1.29848   0.825167    3.31142           0.0378739 -0.0160851  -0.134383
 H              2.20132     1.3925    3.00165           -0.134224   0.222695   0.236554
 H              3.10759   0.839406    3.30153          -0.0839989   0.159965   -0.14181
 H              4.00424     1.3912    2.99063            0.157131  0.0725265 -0.0821791
 H             0.389893    2.48089    3.03692           0.0362528    0.20361  0.0772316
 H               1.3012    1.92691    3.32038          -0.0619779  0.0839931  -0.131384
 H              2.19668    2.47546    3.00774            0.153972  0.0596369  0.0275604
 H              3.09838    1.92603     3.3259           -0.109111  0.0257403   0.159928
 H              3.99817    2.46378    3.03038          -0.0924687  -0.134253    0.19817
 H             0.389185    3.58108     3.0488          -0.0057888 -0.0370963   0.139369
 H              1.28234    3.01343    3.33365          -0.0733024  -0.300915  -0.187081
 H              2.19046    3.56404    3.02303           0.0567045  -0.150608 -0.0652712
 H              3.08359    3.00804    3.34438           0.0177731  -0.131783  0.0842652
 H              4.00781    3.57406    3.05248             0.136455 0.000301745  -0.0541521
 H             0.439999    4.70867    3.05713          -0.0315282  -0.148315 -0.0824272
 H              1.31369    4.10744    3.31512           -0.223182  0.0596379  0.0636013
 H              2.20354    4.70789    3.04156           -0.144556  -0.151294  0.0218726
 H              3.09292    4.09609    3.33905            0.209496 -0.0531589  0.0580691
 H              3.98558    4.71261    3.09112           -0.125153   0.057343 -0.0532734
 H             0.442709   -0.31944    3.93788          -0.00562592  -0.0735771   0.0147412
 H              1.32115   0.273479    4.23848          -0.0823259   0.248809  0.0975308
 H              2.20357  -0.279201    3.94904          -0.0501956   0.261322   0.189249
 H              3.10643   0.268781    4.22526           -0.121016  -0.123687  0.0161567
 H              3.99837  -0.291473    3.90519           -0.126034  0.0855618   0.147317
 H             0.388607   0.812727    3.98263            0.187759 -0.0322824  0.0931573
 H              1.30267    1.37013    4.26875            0.263709  0.0391655   0.113708
 H              2.21244   0.815087    3.92625            0.364344   0.076731  0.0279937
 H               3.1068    1.36511    4.25921          -0.0792321  0.0574008   0.012011
 H              4.01322   0.854765    3.94852           0.0243113 -0.0528806  0.0600921
 H              0.39554    1.91305    3.97099           0.0626618    0.17409   0.115201
 H              1.29362    2.47968    4.29641            0.198716  0.0652365  -0.120969
 H              2.19889    1.91621    3.96222           -0.160879   0.176841 -0.0157526
 H              3.07976    2.46721     4.3228            0.166497  0.0754942  -0.221324
 H              3.99064    1.93355    3.98561          -0.0941681 -0.0431658   0.114367
 H             0.404511    3.03259    4.01148           -0.164667 0.00905785  0.0174918
 H              1.32816    3.56893    4.32504            0.139112  0.0885355 -0.0584513
 H              2.18393    3.02593    3.95377          -0.0546184  -0.011277 -0.0035413
 H              3.04803     3.5722    4.31617           0.0869594  0.0218447  -0.181234
 H              3.95926    3.02246     3.9954            0.115939   0.185792 -0.0220935
 H             0.465449    4.14909    4.03208          -0.0198062  0.0639461   0.248293
 H              1.38545    4.94194    3.93669          -0.00548706   -0.129591   -0.180443
 H              2.19242    4.13285     3.9968          -0.0182537 -0.0949176   0.130283
 H              2.95525    4.95534    3.91769           -0.208928    0.10911  0.0609728
 H              3.93408    4.13544    4.04663             0.13013  -0.118878  0.0467952
