125

 H              0.79426  -0.646306   0.526195           -0.174305  0.0388024   0.192248
 H              1.36047   0.285429   0.445937            0.107764   0.164755   0.128789
 H              2.20017  -0.560746   0.611523           0.0537708  -0.159594   0.128554
 H              3.07021   0.313186   0.485061          0.00706249  -0.202636  -0.214206
 H              3.56611  -0.671949   0.510914           0.0718427 -0.0287846  0.0896104
 H             0.441011   0.835163   0.112079           0.0898447  -0.048367 -0.0173746
 H              1.32731    1.42203   0.461307          -0.0361094  0.0449074  0.0206798
 H              2.21983   0.878426   0.151277           0.0721665 -0.0524507 -0.0549616
 H              3.11968    1.42548   0.476441           -0.103664 -0.0695555  -0.101546
 H              3.99158   0.831886   0.165509            0.132179  -0.190007 -0.0187325
 H             0.431681    1.97143   0.132814           -0.353559  0.0334976 -0.0638646
 H              1.31709    2.51174   0.459142          -0.0310572 0.00613903   0.188125
 H              2.20925    1.97972   0.154917            0.212553  0.0211621 0.00198496
 H              3.09624    2.52776    0.46177            0.084319  -0.257714  -0.195727
 H              3.99879    1.96588   0.135906            0.162408  0.0489213  0.0442481
 H             0.410712    3.05654   0.143009          -0.0564631   0.137225  -0.102528
 H              1.28977    3.62056   0.511083          -0.0292985  0.0130652    0.10565
 H              2.20312    3.08658   0.163475           0.0761997  -0.214602  0.0683728
 H              3.09379    3.63583   0.501432          -0.0909097  0.0252831   0.122418
 H              3.99416     3.0955   0.153527          -0.0259291 -0.0290376  -0.151312
 H              0.34288    4.17972   0.216025           0.0680454 -0.0955275  0.0666983
 H               1.2771    4.72346   0.540411           0.0479026 -0.0856267 -0.0737284
 H              2.18545    4.19862   0.205766           -0.141171 -0.0629621   0.142231
 H              3.05396    4.74681   0.540641           0.0221948 -0.0603409   0.289978
 H              4.00782     4.2175   0.247227           0.0679815   0.115104  0.0798943
 H             0.476581   0.274121    1.07409          -0.0832856  -0.100959  -0.249326
 H              1.35955  -0.252874    1.41079           0.0356415  -0.120528  0.0876578
 H              2.21524   0.354345    1.13318           -0.0854125 -0.00341038    0.185928
 H              3.04163  -0.291836    1.40017           0.0231236   0.074921 -0.0581647
 H              3.96774   0.217018    1.11835           -0.129554   0.220799  0.0805869
 H             0.399589    1.40263    1.09725          -0.0652905   0.099857 -0.0408657
 H              1.31295   0.858395    1.41293            0.175659  0.0994506 -0.0982803
 H              2.21013    1.42127    1.10731           -0.125353   0.180911  0.0769122
 H               3.1217   0.856074    1.42358           -0.170235  -0.221481  -0.162724
 H              4.04381    1.41188    1.09963            0.114729   -0.03424  -0.335856
 H             0.410078    2.50772    1.10115            0.134587 -0.0224379   0.235945
 H              1.30828    1.94879    1.41776          -0.0999413  -0.045998   0.155974
 H              2.21686    2.49796    1.11277          -0.0643713  0.0222752  0.0573328
 H              3.11331    1.95864    1.42187           -0.104436 -0.0764959  -0.262336
 H              4.00382    2.51347    1.08801             0.264157 -0.00286029   0.0170355
 H             0.398589    3.60865    1.15088          -0.00436747    0.232902    0.142916
 H              1.29144    3.03771    1.44295           0.0848711  0.0219225  0.0730901
 H              2.18918    3.59579    1.15171           0.0978921  0.0558059  0.0836466
 H               3.0991    3.05176    1.43693            0.246458  -0.131612  -0.284587
 H               4.0049    3.60232    1.17016           -0.087585  -0.155417   0.159691
 H             0.380335    4.69009    1.21117          -0.0384792   0.166715  0.0497972
 H              1.29325    4.12727    1.47236          -0.0708937 -0.0267294  0.0251818
 H              2.18116    4.70942    1.21965            0.149113  0.0209587   0.119573
 H              3.07138    4.11692    1.46426           -0.155509 -0.0675782 -0.0359849
 H              3.91471    4.75502    1.21989          -0.0862359  -0.049428  -0.146781
 H             0.440478  -0.291974    2.03155          -0.0333475   -0.14321  0.0131446
 H              1.29996   0.302181    2.35465            0.171427  0.0677664  -0.136537
 H              2.21031  -0.256965    2.07842            0.174057  -0.108011  0.0329724
 H              3.08512   0.307201     2.3463            0.157211   0.156328   0.036575
 H              3.90078  -0.392693    2.10539              0.13202    0.143658 -0.00704455
 H             0.395381   0.855007    2.04214             0.159933 -0.00444033    0.172232
 H              1.30468    1.38978    2.36758          -0.0798777   0.045527 -0.0683059
 H              2.20074   0.876603    2.05775           -0.265194 -0.0336281   0.105207
 H              3.11519    1.40482    2.37364           0.0364944   0.146814  0.0244729
 H              4.02034   0.815186    2.03372            0.149169  0.0168276 -0.0464525
 H             0.404909    1.96291    2.05366           0.0852832  0.0561693  -0.164924
 H              1.30025    2.47929    2.36854            0.079274  -0.188355 -0.0169271
 H              2.20863    1.93815    2.05808            0.113689 -0.0307297  -0.151126
 H              3.09837    2.47375    2.39538           0.0423342   0.108577 0.00496719
 H              4.02647    1.93438    2.04824           -0.238492    0.15299  0.0922846
 H              0.41084    3.03949    2.09451            0.179294  0.0683207  -0.189492
 H              1.31192    3.55584    2.40853           -0.161741  -0.156885 -0.0753763
 H              2.20376    3.01889    2.07018            0.140851  0.0170177 0.00495345
 H              3.09024    3.55896    2.41069            0.100425   0.109302  0.0306035
 H              3.97125    3.03234    2.08794          -0.0862954 0.00979979  -0.313917
 H             0.410176    4.12126    2.13268           0.0364377  0.0969522  0.0307848
 H              1.30443    4.69063    2.42224           -0.167774  0.0141908 -0.0711485
 H              2.19947    4.11984    2.11349          8.20504e-05   -0.169591    0.118571
 H              3.08868    4.68835    2.41185          -0.0270808  0.0888021 -0.0561878
 H              3.99334    4.12158    2.11772          -0.0160175 -0.0615391  0.0108052
 H             0.393677   0.286172    2.97384          -0.00780465   0.0414298  -0.0998033
 H              1.28976  -0.290005    3.25979           -0.0865134 -0.00525575     0.02425
 H              2.18236   0.310423    3.01076           -0.177153  -0.122206 -0.0477062
 H              3.08283  -0.311879    3.27501           -0.174399 -0.0199043 -0.0614543
 H               3.9557    0.29341    3.00757          -0.0538569  0.0792172   0.179968
 H             0.381246    1.39499    3.00229           0.0411285  -0.106598 -0.0829884
 H              1.29344   0.845431    3.32312          -0.0589961  -0.130773   0.227559
 H              2.19917    1.37816    3.01168           -0.095365  0.0256972   0.168644
 H              3.09186   0.828784     3.3128           0.0131372 -0.0684066  0.0410303
 H              4.01877    1.37849    3.00101            -0.23169  -0.198703  0.0462355
 H             0.402656    2.47017    3.02524           -0.124955   0.168899 -0.0390458
 H              1.30856    1.93154    3.32263           0.0333068  -0.236947  -0.248941
 H              2.20518     2.4817    3.00019           0.0904285   0.144161 -0.0609322
 H              3.10343    1.92352    3.33052           -0.124077   0.179204 -0.0960611
 H              4.01429     2.4724    3.00639           0.0451844  -0.123248  -0.204922
 H             0.398045    3.56774      3.059          -0.0794654  0.0363315   0.147948
 H              1.29587    3.00794    3.35477            0.180397  -0.115804 -0.0407853
 H              2.19648    3.57574    3.02528          0.00115013 -0.0149727   0.162757
 H              3.11103    3.01505    3.35445           0.0372942 -0.0914082   0.082279
 H              4.02181    3.56815      3.056           0.0634639   0.188353 -0.0775573
 H             0.429429    4.70661    3.08878          -0.0542944 -0.0984234  0.0190494
 H              1.31185    4.08009    3.34515           -0.109504 -0.0482412  -0.240038
 H              2.19717    4.69484    3.04075            0.136298   0.389601   0.106627
 H              3.09925    4.10354    3.33891          -0.0043978   0.278354 0.00531928
 H              3.98466    4.70297    3.05535            0.108645  0.0294014   0.135411
 H              0.37462  -0.285687     3.8941          -0.0630452  -0.214725 -0.0968127
 H              1.29637     0.2665    4.27647            0.118501 -0.0615494 -0.0761822
 H              2.17863  -0.280164     3.9371          -0.00534974    0.249247   0.0975238
 H              3.08218   0.253402    4.25771           0.0320149   0.126492 -0.0612085
 H              3.95853   -0.30944    3.93747           -0.0854989   0.0884639 -0.00125722
 H             0.400161   0.824792    3.97769           -0.258838 -0.0121891 -0.0616939
 H              1.31291    1.37732    4.28976          -0.0954557  -0.138659   0.134212
 H              2.19303   0.819993    3.96288            0.151536   0.022247   0.107242
 H              3.09576    1.35583    4.26659            0.107977 -0.0497589   0.051206
 H              3.99006   0.812572    3.97336          -0.0109072 -0.0868223 -0.0324586
 H             0.414363    1.94297    3.97323           0.0731329  -0.124442 -0.0141775
 H              1.31101    2.47145    4.29054          -0.0221436   0.345189   0.101814
 H              2.21984    1.90712    3.95264          -0.0249515   0.150964  -0.230824
 H              3.12828    2.46687    4.30714          -0.0168504   0.103031  0.0630783
 H              3.99187    1.91437    3.95949          -0.0817807   0.030333  0.0885785
 H             0.393135    3.04131    4.01479           -0.261889  -0.012117  -0.162111
 H              1.33949    3.56747    4.30533            0.103646   0.114355   0.233726
 H              2.21451    3.01233    3.95794            0.148427   0.131705  -0.224223
 H              3.08718    3.57028     4.3001           0.0224152  -0.135095  -0.048583
 H              4.01506    3.01489    3.97809          -0.0119388  -0.204687   -0.24277
 H             0.493855    4.16653    4.04496             0.31074   -0.17067 -0.0332108
 H              1.45976    4.99479    3.86257           -0.202628 -0.0459513   0.116525
 H              2.19846    4.15151    3.98488            0.112245 -0.0424696    0.13901
 H               2.9184    5.01358    3.84356          -0.0693884  0.0937259   0.135179
 H              3.94057    4.16583    4.01322           -0.209145  0.0319734  0.0385735
