125

 H             0.832148  -0.662094   0.539874           -0.228677   0.103565   0.202974
 H               1.3423   0.306822    0.46135           -0.149133   0.227849 -0.0458799
 H              2.04982  -0.628699   0.641006          -0.0691409 -0.0284207  0.0120072
 H              3.06377   0.298907   0.473869          0.000883382    0.179066   -0.145746
 H              3.68141  -0.587325   0.525541           -0.150494  0.0432806   0.222393
 H             0.427179   0.837544   0.159518            0.105157  -0.195018   0.262296
 H              1.31837    1.41817   0.457914          -0.0365805  -0.220991 -0.0419182
 H              2.20716   0.871376   0.134644           0.0115733  0.0439554 0.00023618
 H              3.09288    1.40992   0.466355           0.0489437 -0.0317671  0.0509886
 H              3.95208   0.832913   0.133754          -0.0157695 -0.0322838   0.140824
 H             0.387755    1.96252   0.168302           0.0867235  0.0420854  -0.259141
 H              1.31793    2.50636   0.473663            -0.23373 -0.0132789   0.179921
 H              2.20557    1.96901   0.132351           0.0165684   0.047623  -0.249392
 H              3.09369    2.49794   0.494437          0.00943725 -0.0657757   0.210724
 H              3.98707    1.95062   0.163259            0.183231 -0.0244863   -0.02385
 H             0.403912    3.07961   0.172553            0.205705    0.10701 -0.0384717
 H              1.29296    3.61584   0.488047          -0.0482511 -0.0567028   0.261594
 H              2.18599    3.08395   0.168813          0.00312031  -0.271746   0.147063
 H              3.10921    3.60894   0.513703           -0.0357873 -0.00642288   0.0270794
 H              4.00135    3.06934   0.154711           0.0862624   0.139114   0.122614
 H             0.395656    4.19307   0.230726          0.000326764    0.317921    0.241772
 H              1.32321    4.73856   0.525805          -0.0207316 -0.0572872 -0.0253463
 H              2.21068    4.17647   0.208429          -0.0503935 -0.0351856  0.0557974
 H              3.08876    4.71576   0.516757          -0.0747721  0.0292311  -0.149472
 H              4.01048    4.16771   0.209398           0.0657139   0.240999  0.0274152
 H              0.42647   0.264755    1.08806          -0.0865777  -0.500638  -0.243616
 H              1.36324   -0.27139    1.41661           -0.066565  0.0671853   0.108937
 H              2.20822   0.329287    1.13142          -0.0530302  0.0032418   0.204571
 H              3.06939  -0.288251    1.39937           -0.277152  -0.267834   0.150147
 H              3.97819   0.304937    1.08087           -0.140579  0.0101171    0.12297
 H             0.402115    1.38296    1.11474            0.109042  -0.216815  0.0822842
 H               1.2988   0.850035     1.4147            0.178168 -0.0212448  -0.017862
 H              2.21865    1.42473    1.09527          -0.0124002  0.0685552  -0.108639
 H              3.09434   0.871002    1.41451           -0.275475  0.0646687 0.00412779
 H              4.00639     1.4061     1.0977            0.059826  0.0540554   -0.01189
 H              0.40056    2.49367     1.1287            0.178336   0.350854   -0.27661
 H              1.29556    1.93714    1.43135          -0.0827645 -0.0495402 -0.0117475
 H              2.20324    2.50315    1.12192            0.165421   0.153478  0.0146614
 H                  3.1    1.95464    1.42714           0.0278834  -0.148978  0.0315228
 H              3.98402    2.51229    1.11659          -0.00374759   0.0106898   0.0761592
 H             0.412343    3.61189    1.14238           -0.250716 -0.0976219  0.0473809
 H              1.30208    3.03832    1.43993           0.0159694  0.0577081  -0.189919
 H               2.2091    3.59241    1.13868           0.0965157   0.125735  -0.217846
 H              3.10171    3.05365    1.46099           0.0804692   0.049247  0.0753332
 H              4.03904     3.6074    1.16241          -0.0233933  -0.156262   0.116907
 H             0.416917    4.74626    1.19135           -0.116551 0.00387574   0.182966
 H              1.31399    4.13877    1.45876           0.0570927  0.0330706  -0.111091
 H              2.22528    4.71045    1.20288          -0.0761962  0.0455347  -0.114705
 H              3.10466    4.12366    1.47718           0.0888408  0.0592699  -0.148595
 H              3.95949    4.71972    1.20883           0.0727605  0.0804407  0.0545103
 H             0.456074  -0.298947    2.02352           0.0363443  0.0611704  0.0567006
 H              1.30384   0.299857    2.36235           0.0773307  0.0848572  -0.128879
 H              2.20793  -0.302349    2.09228          -0.0530883  -0.202064 -0.0864302
 H              3.08103   0.310796    2.31483            0.245735  0.0477823  -0.135525
 H              3.96031  -0.268892    2.04644          0.00665215   0.136989  -0.140637
 H             0.393338   0.828121    2.05915          -0.0890429  -0.183619   0.297598
 H              1.28874    1.39857    2.37443           0.0179661  0.0150006  0.0326376
 H              2.17826   0.842216    2.05446           -0.159217  0.0543923 -0.0960151
 H               3.0908    1.39317    2.35244            0.088455 -0.0756054 -0.0713774
 H              4.01741   0.863612    2.02937           -0.115792 -0.0655821   0.108086
 H             0.401437     1.9488    2.08008           -0.117038 -0.0382336 -0.0931721
 H              1.29677    2.48222    2.37808           0.0955203 -0.0148159  -0.174376
 H              2.19366    1.93225    2.05848             0.216875    0.118761 -0.00685291
 H              3.09891    2.48472    2.38417           0.0441084   -0.27623  0.0185726
 H              3.98035    1.96112    2.06001            0.202505   0.146946  0.0481111
 H             0.413573    3.03169    2.08527          -0.0697337  0.0352092  -0.106659
 H               1.3144    3.56256    2.39003             0.247518   0.0432511 -0.00258301
 H              2.20823     3.0194    2.07587          -0.00928394    0.198704   -0.139813
 H              3.10875    3.57611    2.41754           -0.138701 -0.0834518   -0.12913
 H              4.01119    3.05635    2.08477           0.0749783  0.0472607  -0.182498
 H               0.4139    4.15041    2.10531           -0.214179  -0.109682  -0.284709
 H              1.33723    4.67571    2.37834           0.0407956  0.0557646   0.108686
 H              2.20318    4.10851    2.10435            0.0371516 -0.00235965  0.00832238
 H               3.0741    4.69092    2.41004          -0.0914112  -0.165967  0.0541605
 H              3.99273    4.16499    2.14485          -0.0734085   0.137743  0.0876015
 H             0.372474   0.289874    2.98715            0.226956 0.00224651 -0.0805517
 H              1.31536  -0.275838    3.27154          -0.0299402 -0.0359659  -0.190895
 H              2.20921   0.279069    3.00501            0.145572 -0.0574652  0.0282304
 H              3.09469  -0.311649    3.21975           0.0199221  -0.180707   0.147886
 H              3.98526    0.27805    2.99303            -0.15936 -0.0266097  -0.113987
 H             0.386698    1.38032    3.02432            0.219298  -0.317659 -0.0686216
 H              1.31299   0.829412    3.31347          -0.0270966    0.03479  0.0503952
 H               2.1984    1.38645    3.00377              0.1522 -0.0476907  0.0905821
 H              3.09341   0.820201    3.29342           -0.429215 -0.0436261  0.0306673
 H              3.98202    1.38223    3.00846           0.0041471  0.0891985  -0.292864
 H             0.412447    2.48646    3.02538            0.101566 0.00672783 -0.0662311
 H              1.30119    1.92654    3.33624            0.125324 -0.0900376   0.217227
 H              2.19163    2.47538    3.02583           -0.075143    0.13393 -0.0258359
 H              3.10992    1.92105    3.32087           0.0734627  0.0612146   0.245714
 H              3.97979    2.49227    3.02238           -0.243329 -0.0361612   0.043133
 H             0.401929    3.59878    3.03786           -0.179056   0.268019   -0.14397
 H               1.2894    3.00217    3.35884           -0.192327  0.0153728  0.0690538
 H              2.20429    3.56573    3.04809           0.0939333   0.100037  0.0860862
 H              3.08486    3.01083    3.36827           -0.121269  -0.356331   0.103519
 H              3.98883    3.58945    3.06098          -0.0142655  0.0596474  -0.044911
 H             0.480037    4.77039    3.07553          -0.0803838 -0.0514676   0.081578
 H              1.30949    4.09498    3.31988           -0.189078  -0.109793 -0.0418364
 H              2.20573    4.68356    3.04212          -0.0847365   0.115258  0.0614133
 H              3.08124    4.09634    3.36956           -0.173547  -0.060247   0.128098
 H              3.91474    4.73287    3.10613          -0.0200495 -0.0166871  -0.142003
 H             0.397958   -0.29426    3.95083            0.120664  0.0449824  0.0649064
 H              1.31974   0.242305    4.23983             0.167305 -0.00858392   0.0673943
 H              2.19674  -0.320184    3.89957           0.0886501   0.135504 -0.0407062
 H              3.09348   0.210305    4.20631            -0.32651  -0.151862  -0.134987
 H              3.97785  -0.338878    3.89686           -0.083102  0.0453169  0.0287017
 H             0.434719   0.807293    3.95572            0.151867  0.0166854  -0.229574
 H              1.31717    1.37055    4.28246          -0.00351451    0.137664 -0.00395751
 H              2.19746   0.813037    3.93217             0.151002  -0.0833843 -0.00774829
 H              3.09454    1.32959    4.28019           0.0326322  0.0083934 -0.0323581
 H              3.99941   0.814216    3.94331           0.0541811   0.179502   0.118317
 H             0.413395    1.91408    3.97654           -0.145665   0.336115 -0.0931796
 H              1.32806    2.47331     4.3209           0.0669675  0.0494815  0.0189763
 H              2.21388    1.92693    3.97092              0.1261   0.132911  -0.217904
 H               3.0787    2.45001    4.31119          -0.00798955  0.00310324    0.107129
 H              3.97898    1.91735    3.98026             0.151849 -0.00240258   0.0984812
 H             0.418222    3.02301    3.99731           0.0808705  0.0127253 0.00294418
 H              1.32094    3.59299    4.30355            0.231565   0.100752    0.22427
 H              2.18488    3.05459     3.9835           0.0737677  -0.111502  0.0605426
 H              3.05581    3.57557    4.35109           0.0482873  -0.122958  0.0698778
 H              3.95921    3.02689    4.02772             0.08432 -0.0212058  0.0115139
 H              0.47536    4.17988    4.01555          -0.0461747 -0.0304806  -0.169315
 H              1.42792    5.00101    3.80082          -0.00403342  -0.0343601    0.103423
 H               2.1914    4.17523    4.01216            0.135064  -0.203946 -0.0541872
 H              2.94656    5.04422     3.8415          -0.0297653  -0.136738  -0.152662
 H              3.93033    4.14334    4.03826           0.0616754   0.020947 -0.0600331
