125

 H             0.749957  -0.641602   0.567943           0.0702198  0.0849632 -0.0474813
 H               1.3292   0.294934   0.462188           0.0710674 -0.0790485 -0.0342482
 H              2.18839  -0.528923   0.611509            -0.034794 -0.00260994   -0.170522
 H              3.03233   0.285588   0.462024           -0.200802   0.259864   0.163555
 H              3.68578   -0.58764   0.507641            0.127915  -0.144407   0.188519
 H              0.43586   0.833624   0.156189            0.069742   0.143958   0.157221
 H              1.31456    1.39379   0.495442            0.319934  -0.132156   0.115583
 H              2.19737   0.867658    0.12401           0.0490497  0.0220214  -0.140165
 H              3.08932    1.40519   0.475937            0.130972  -0.179703  0.0268141
 H              3.93767   0.829918   0.131749           0.0429489  0.0510289  -0.112954
 H             0.432485    1.95552   0.117189           -0.124721   0.426622  0.0212572
 H              1.29719    2.51935   0.477764           -0.209504  -0.161231  -0.124759
 H              2.19076    1.97811   0.163029             -0.1013  -0.019466 -0.0473429
 H              3.10755    2.50786   0.485034           0.0140071  -0.040032  -0.117118
 H              3.98804    1.93666   0.139089            0.210576 -0.0539395   0.132838
 H             0.431072    3.08995   0.134263           0.0429613 -0.0812766  -0.109502
 H              1.33235    3.63393   0.489087           -0.153618  0.0257356 -0.0124636
 H               2.1899    3.05992   0.151668          -0.0415811  0.0404159  0.0402905
 H              3.09359    3.62537   0.494766           0.0784084    0.06137 -0.0294158
 H              4.01131    3.06612   0.180158            0.211763  0.0217971  -0.289724
 H             0.453163     4.1912   0.174947           -0.101316 -0.0440548 -0.0757018
 H              1.34896    4.74135   0.564164          -0.0345847  -0.252142  0.0217923
 H              2.21297    4.18387   0.181026           0.0289276 -0.0853306 -0.0526629
 H              3.08859    4.75674   0.538711          -0.00310703   0.0522716  -0.0502674
 H              3.96489    4.19958   0.197265          -0.0792781  0.0493372   0.246866
 H             0.415087   0.280836    1.10875            0.120137  -0.128446  0.0219259
 H              1.34517  -0.258557    1.40784           0.0152247  0.0526295  -0.046375
 H              2.19079   0.378567    1.15347           -0.230614  0.0248441 -0.0720224
 H               3.0251  -0.264303    1.39102           -0.0389152 -0.00888595   -0.176514
 H              3.95915   0.316756    1.07119            -0.276427   0.0239574 -0.00569004
 H             0.395963    1.40167    1.10764           0.0946835   0.317566  -0.191123
 H              1.28235   0.862646    1.42962           0.0571119  -0.029202 -0.0125359
 H              2.19939    1.43089    1.11239           0.0439476  0.0969467  -0.128498
 H              3.09936   0.875272    1.41288           -0.100092  -0.051122   0.212148
 H              4.00718    1.41749    1.09452            0.188941    0.10907  0.0839639
 H             0.385119    2.50608    1.10264          -0.0145072  -0.114441 -0.0121207
 H              1.29695    1.96763    1.43768           0.0172023  -0.102496   0.299757
 H              2.19539    2.50466    1.12574            0.152555  -0.151538   0.181561
 H              3.09223     1.9592    1.44673          -0.0494131  -0.112131  0.0330507
 H              4.01296    2.50681    1.12794            0.259629  0.0775684 -0.0907636
 H             0.395291     3.6039    1.11363            0.077113  0.0909615  0.0325944
 H              1.31534    3.04353    1.43491            0.351436  -0.114721  -0.145225
 H              2.20929     3.5923     1.1181           0.0514298   0.294335  -0.015451
 H              3.08417    3.03398     1.4389          -0.0198567   0.199721   0.132073
 H              4.00053    3.58912    1.16174          -0.0569899 -0.0969533  0.0922402
 H             0.446187    4.70326     1.1677           0.0411764  0.0819642 -0.0458147
 H              1.31832    4.11987    1.46678           -0.247697  -0.107372  -0.179535
 H              2.21473      4.693    1.19509           -0.222324   0.168037  0.0760251
 H              3.10433    4.11451     1.4737            0.191232   0.118854   0.149035
 H               3.9743    4.70708    1.17098          -0.0673865  -0.319423  -0.189471
 H             0.442176  -0.329542    2.05136           -0.215995  0.0118401 -0.0836538
 H              1.30836   0.295385    2.34505            0.155196  0.0454163 -0.0574696
 H              2.21221  -0.272442    2.07886          -0.0123518  -0.112572  0.0906088
 H              3.08729   0.293585    2.33762           0.0416207   0.138821 0.00823282
 H              3.96077  -0.274097    2.00785          -0.0660214 -0.0556916  0.0369425
 H             0.406636   0.828295    2.06712          -0.0801613  -0.141897  0.0329559
 H              1.29654    1.40213    2.37186           -0.123281 -0.0941838   0.278669
 H              2.20891   0.863358    2.07599           -0.183295  -0.146589 -0.0621353
 H              3.08842    1.39954     2.3805          -0.0475235  -0.278589  0.0653777
 H              4.00452   0.849204    2.03836          -0.0165091  -0.201194  0.0198691
 H              0.40635    1.94468    2.07265          -0.0535518   0.100758   0.067611
 H              1.29165    2.48073    2.40564           -0.136288  -0.180835   0.121608
 H              2.19345    1.95526    2.07627           -0.187736  0.0694352  0.0674573
 H              3.08194    2.48534    2.40209           0.0331308   0.040112 -0.0531875
 H              3.99603    1.93744    2.07423              0.26941   -0.153321 -0.00721876
 H             0.403792    3.03506    2.06041           -0.106041  0.0356352 -0.0467315
 H              1.30626    3.55978     2.4032           0.0526494  0.0869845   0.284433
 H              2.19934    3.02997    2.05875          -0.0845994  -0.280592   0.168216
 H              3.10301     3.5599    2.40579           -0.097873 -0.0755814 -0.0236949
 H              3.96435    3.02633    2.08458          -0.0406281   0.235827  0.0270136
 H             0.423746    4.15137    2.09982            0.263093 -0.0884038   0.187703
 H                1.345    4.71795    2.34484           0.0318624   0.223284   0.109187
 H              2.20706    4.10343    2.11831            0.240289   -0.14232  -0.164406
 H              3.06267    4.68146    2.39974            -0.213602   -0.168646 -0.00801455
 H               3.9973    4.14414     2.1138              -0.198 -0.0895346   0.033017
 H             0.426984   0.266733    2.98413           0.0759535   0.409901   -0.15144
 H              1.32501  -0.300204    3.25818          -0.00995682  -0.0909034 -0.00187066
 H              2.21641   0.300448    2.99865           0.0607819  0.0238821 -0.0631929
 H              3.10967  -0.322011    3.26545           -0.289964  -0.013417  0.0103872
 H              3.97102   0.270908    2.96643           -0.127242  -0.184227 -0.0225776
 H             0.396169    1.38156    3.01474           0.0214213 -0.0869801 -0.0366068
 H              1.32125   0.822939    3.31108            0.141869  -0.188763   0.107467
 H              2.18741    1.39247    3.01862           0.0434415  -0.254017   0.037603
 H              3.09512    0.82485    3.31472              0.22905 -0.00861336  -0.0666358
 H              4.00601    1.36713    3.02289           -0.101709 -0.0217581  -0.128161
 H             0.395693    2.48858     3.0554           -0.152878  0.0851158  0.0781705
 H              1.30025    1.93367     3.3495           0.0425833 -0.0758313 -0.0273277
 H              2.18985    2.47642    3.01361            0.106535  -0.121761 -0.0528392
 H              3.08516     1.9127    3.35168           -0.121036   0.250661  -0.148555
 H              3.97725    2.47291    3.04043           0.0888481 -0.0709509   0.216007
 H             0.403766    3.58892    3.06118           0.0374878  0.0814978   0.133336
 H              1.29785    3.02159    3.36498           -0.156378  0.0725625    -0.1214
 H              2.20181    3.55285    3.03721            0.129161  0.0764821   0.130147
 H              3.08867    3.00677    3.35828           -0.204844   0.204257  -0.127559
 H              3.99631    3.58747    3.04146            0.110616  0.0271794  -0.091259
 H             0.462572    4.73068     3.0484           -0.042963  0.0649633  0.0274512
 H              1.32018    4.09109    3.32523          -0.0424884  -0.159128  -0.160907
 H              2.20026    4.68741    3.07028           0.0199408  -0.120015 -0.0847952
 H              3.06671    4.08627    3.32952          -0.0510571 -0.0129848  0.0516998
 H              3.92095    4.72702     3.0588          -0.0882641 -0.0634925  0.0307716
 H              0.40735  -0.308627    3.92146            0.144815  0.0502429   0.035028
 H              1.31479    0.23563    4.24157           0.0122782 -0.0442628  -0.246121
 H              2.21343  -0.308627    3.90547           -0.141611 -0.0492919 -0.0417458
 H              3.11538   0.236755    4.25114          -0.0542159  -0.131148  0.0936884
 H              4.02553  -0.324248    3.89832            0.251188   0.141452 -0.0859903
 H             0.400998   0.813461    3.94787             0.158879 -0.00978529    0.168438
 H              1.31682    1.34084    4.28167          0.00876402  0.0277215  -0.174989
 H              2.20091   0.802108    3.94974          -0.0362374  -0.266679   0.131019
 H              3.09865    1.35309    4.29859            0.146172  0.0220341 -0.0298541
 H              4.00605   0.800521    3.97077            0.022145  0.0455812  -0.121963
 H             0.402524    1.92918     3.9914          -0.0798392  -0.063531   0.114869
 H              1.29018    2.46948    4.31482          -0.0561724  0.0390098  -0.178252
 H              2.20629    1.91294    3.96598          -0.0335831     0.2333 -0.0342746
 H              3.07034    2.46047     4.3087           0.0192005   0.158276  0.0766192
 H              4.00846    1.91517    3.98685            0.177424  0.0906802  -0.160893
 H             0.379628    3.05521      4.006           0.0406502 -0.0176461  0.0592324
 H              1.29353    3.57345    4.32906             0.16676 -0.0677164  0.0785391
 H              2.18624    3.02807     3.9954           -0.354646  0.0105604 -0.0708081
 H              3.05665    3.58479    4.30928          0.00661509   0.153522   0.200807
 H              3.98219    3.04545    4.00492          -0.0287576   0.159072 -0.0846102
 H             0.472338    4.19645    4.01148           0.0529357   0.140412  0.0232068
 H              1.47991    4.97659    3.90112           -0.140013  0.0733469  -0.101487
 H              2.18608    4.14064    3.98665           0.0301983   0.326961  -0.148361
 H              2.92632    4.97137     3.9334           0.0137186  0.0229176   0.282278
 H              3.93139    4.17814    3.99844          0.00915043   0.069439  -0.118319
