125

 H             0.750421  -0.697957   0.643953           -0.136732  -0.303995  0.0899769
 H               1.3366   0.248389   0.462475           -0.240142  -0.202182  0.0388887
 H              2.13834  -0.563698   0.639803           0.0632866  -0.191218 -0.0986417
 H              3.05477   0.303884      0.453          -0.0255208 -0.0222035  -0.213867
 H              3.84997  -0.427531   0.347137           -0.222703  0.0880558   0.096863
 H             0.427139   0.806127   0.141295           -0.154429  0.0287781   -0.34688
 H              1.30059     1.4018   0.479801            0.184113 -0.0783523 -0.0500974
 H              2.16352   0.854889   0.133403          -0.0862635  -0.316363  0.0207409
 H              3.06638    1.39011    0.47809           -0.214498 -0.0313891   0.147359
 H              3.99553   0.816386   0.140699          0.00706825   0.167363  -0.180156
 H             0.407506     1.9567   0.160565            0.174774  0.0647064 -0.0344246
 H              1.29023    2.51915   0.491822          -0.0543992 -0.0255419  -0.100989
 H              2.18507    1.95154   0.152724            -0.25818  -0.170295  -0.185842
 H              3.06816    2.50669   0.469472           -0.242689  0.0747201  0.0952408
 H              3.92879    1.95465   0.129625           0.0530722  -0.140308   0.184741
 H             0.380331    3.07027   0.189668           -0.142412 -0.0310354  0.0438911
 H              1.28894    3.61728    0.53338          -0.0134161 -0.0669944   0.107059
 H               2.1664    3.06715    0.17788           -0.104589  0.0711294  0.0760732
 H              3.11084    3.59863   0.505357           0.0408267 -0.0589069   0.131618
 H              3.99761    3.06844   0.180538            0.195044 -0.0515189   0.101219
 H             0.400191    4.20702   0.238093          -0.0785045  -0.037925 -0.0798443
 H              1.34656    4.75334   0.514047           -0.220032 -0.0263548  -0.108866
 H              2.20066      4.156   0.214759           -0.102277  -0.193883       0.11
 H              3.10492    4.70481   0.548101           0.0529513 -0.0314042   0.146849
 H              4.05593     4.1775    0.25189           -0.167804  0.0769672  0.0181443
 H             0.417389   0.287937    1.09994          -0.0627492  0.0877327    -0.3037
 H              1.35307  -0.255493    1.41557           -0.020446    0.11735 -0.0365417
 H              2.19535   0.368228    1.12327           -0.179405 -0.0474295  0.0330248
 H              3.06622  -0.242572    1.37397           0.0214873  -0.141871  -0.134536
 H              3.98762   0.304494    1.11619            0.123206  0.0361418   0.129624
 H             0.396934    1.39146    1.10316           0.0282832  0.0150039  -0.120555
 H               1.2914   0.862647    1.42184          -0.0327888   0.199898   0.118452
 H              2.18163    1.42182    1.12312          -0.0117929   0.154189  0.0355716
 H              3.10938   0.873659    1.43309           0.0583146   0.107722    0.18425
 H              3.99272    1.41958     1.0817            -0.191446 -0.00665523  -0.0399492
 H             0.389217    2.50438    1.12507            0.200227  -0.121046 -0.0537587
 H              1.28103    1.94919    1.43597            0.112578   0.176028  -0.033485
 H              2.18542    2.50107    1.12195           0.0022041   0.205476 0.00248196
 H              3.07998    1.94439    1.44417            0.139473  0.0269207  -0.216589
 H              3.98021    2.50174    1.10831            -0.344586 -0.00152527    0.100778
 H             0.373392    3.60593    1.16756            -0.20507  -0.105929  0.0864914
 H              1.29216    3.04343    1.44993             0.12238  0.0802761 -0.0456129
 H              2.21268    3.58572    1.15297          -0.0718114 -0.0284077  0.0210915
 H              3.09509    3.03462    1.43914            0.124571   0.116724  0.0732823
 H              4.03188    3.61719    1.16209            0.253819 -0.0028573  0.0182461
 H             0.471898    4.78209    1.19739          0.00969891  -0.183914  -0.157049
 H              1.30036    4.13231    1.47239          -0.0253191 -0.0480093    0.30406
 H              2.20355     4.6801    1.20474           -0.124742   0.108211  0.0259911
 H              3.12426    4.12964    1.46117            0.121091   0.192465  -0.214786
 H              3.99098    4.76485    1.21944            0.200904  0.0720307 -0.0877564
 H             0.453013  -0.290305    2.02302           0.00452927   0.0169193 -0.00343581
 H              1.31249   0.294497     2.3517            0.127851  0.0557361  0.0497431
 H              2.23581   -0.28691    2.05781           -0.164478  -0.108936  -0.275113
 H              3.08612   0.312986    2.35805             0.10585 -0.0948402 -0.0826694
 H              3.94043  -0.280121     2.0692           0.0141064 -0.0950489  -0.164129
 H              0.38242   0.839788     2.0523            0.139878  -0.185365  -0.205759
 H              1.29581    1.38607    2.37292           -0.182106  -0.201858  0.0508151
 H              2.20195   0.858126    2.06979           0.0696909 -0.0965695 -0.0816988
 H              3.10604    1.39173    2.39341            0.190967  0.0474762  -0.180634
 H              4.00322   0.843953    2.05177           -0.144957   0.201327   0.152542
 H             0.392157     1.9416    2.07975          -0.0913868  0.0843791   0.152746
 H              1.29377    2.48106    2.39585           -0.071294  -0.085595  0.0142773
 H              2.19663    1.94523    2.07314           0.0182444  -0.113038 -0.0311072
 H              3.10362    2.47924    2.39306          -0.0687454  0.0306024  0.0214955
 H              3.99623    1.93979    2.05829          -0.0935868    0.11052   0.193737
 H             0.403467    3.04286    2.10452           -0.203676  0.0332033  -0.215274
 H              1.31079    3.58677    2.39469           0.0779809   0.176362  -0.138179
 H              2.19587    3.01797    2.08892            0.221647 -0.0386067 -0.0127126
 H              3.09401    3.57842    2.37545           0.0586756   0.139438 -0.0477207
 H              3.99393    3.04839    2.09498           0.0327996   0.184344  -0.053725
 H             0.426765    4.16318     2.1063             0.14358   0.111066 -0.0814646
 H              1.34749    4.69721    2.40008            0.115138    0.20932 -0.0939865
 H              2.20669    4.10289    2.10555          -0.0240075  0.0516413   0.198679
 H              3.09422    4.71015    2.37624           -0.224533 -0.0152241   0.113389
 H              4.00738    4.15986    2.13302            0.200581  0.0192909  0.0975626
 H              0.40853   0.253255    2.97746           -0.132303  -0.264676   0.200307
 H              1.31056  -0.297563    3.25024           0.0721059   0.139308   0.047946
 H              2.19521    0.26887     2.9844            0.133846 -0.0580432   0.138204
 H              3.08943  -0.309366    3.25539           0.0876608   0.314465   0.413333
 H              3.98216   0.304934    3.00732            0.188866 -0.0016591 -0.0980761
 H             0.408759    1.38139    3.00578            0.0691151 0.000328768  -0.0238485
 H              1.30245   0.807407    3.31178            0.107605 -0.0324761  -0.128717
 H              2.20189    1.36434    3.01609          -0.0243435 -0.0682789   0.248589
 H              3.08528   0.813027    3.32129           -0.180426  -0.126153  -0.133594
 H               3.9843    1.39123    3.02142          -0.0218126  -0.205235  0.0590638
 H             0.407873     2.4858    3.03478          -0.0493421 -0.0265336  0.0958087
 H               1.3072    1.91106    3.32426            -0.13562  0.0838123 -0.0231215
 H              2.19096    2.46119    3.02677           0.0457402 -0.0455608  -0.144669
 H              3.08372    1.91276    3.35999          -0.00177403   0.0612206  -0.0808154
 H              3.99485    2.47876    3.02954           0.0959152  -0.013252  0.0143959
 H             0.424058    3.59161    3.03296          -0.0182578  0.0476133 -0.0169174
 H              1.30848    3.01466    3.34258           0.0233556 -0.0588708  -0.254388
 H              2.21078    3.55851    3.02507          0.00617672 0.00563177 -0.0421721
 H               3.1002    3.01338     3.3284           0.0336992   0.127835 -0.0543144
 H              4.00923    3.57986    3.05761           -0.139581   0.337121   0.106047
 H             0.473194    4.73476    3.07092            0.200013   0.280616   0.240721
 H              1.33653     4.1039    3.33302           0.0326425   0.111335  -0.173817
 H              2.21717    4.72239    3.02929            0.076804  -0.085583 -0.0691175
 H              3.07996    4.10621    3.29996            0.123998 -0.0634455   0.265383
 H              3.95181    4.73138    3.06407          -0.0818426  0.0877053   0.247736
 H             0.392081  -0.323518    3.90001            0.109098   0.269703 -0.0524395
 H              1.30482   0.208817    4.24645           -0.135158  0.0620241 -0.0829537
 H               2.1915  -0.323282    3.90504           -0.213247 -0.0303761  -0.147356
 H              3.06899   0.215469    4.25395           -0.091607  0.0796667   0.318861
 H              4.00705  -0.286339    3.92466           0.0206795   0.318881   0.307663
 H             0.396357   0.789468    3.94189           0.0219881 -0.0586669   0.102355
 H              1.30342    1.32215    4.26906             0.20131  0.0953295 -0.0203482
 H              2.18493   0.777081    3.94187           -0.0776487 -0.00378619   0.0316534
 H              3.05904    1.33096    4.32687           0.0700919 -0.0948271  -0.016507
 H              3.97784   0.815524    3.96921            0.130253 -0.0026189 0.00563421
 H             0.395003    1.92345    3.96924            0.296267  0.0495079 -0.0477009
 H              1.29227    2.43337    4.29755            0.041306  0.0782466  -0.168652
 H              2.18494    1.89245    3.97092           -0.147069  0.0664057   0.171554
 H              3.06568    2.46117    4.30965            0.187304 -0.0729212 -0.0211462
 H              3.96735    1.92015    3.99889            0.126924  -0.234222 -0.0613935
 H              0.41841    3.02559    3.99127            0.172026 -0.0390916 -0.0547636
 H              1.33931    3.56827    4.29687           -0.117294  -0.174157     0.1766
 H              2.19785     2.9987    3.97812            0.0074059   -0.116158 -0.00725464
 H               3.0346    3.59102    4.30228           -0.185322  -0.205467 -0.0839473
 H              3.96767    3.03362     3.9891            0.142738 -0.0447665 -0.0279111
 H             0.485499    4.16734    4.01428             0.16184  -0.324763  -0.140042
 H              1.43327    5.08836    3.73407           0.0373207 -0.0327424 -0.0957147
 H              2.21379    4.18392    3.96662           -0.063212 -0.0204113 -0.0886106
 H              3.03881    5.00569    3.86222            0.185053 -0.0825381  0.0250503
 H              3.91539    4.18246    4.01805           -0.200664 -0.0663973  0.0679462
