125

 H             0.882289  -0.664004   0.522485            0.172621 -0.0182466   0.032928
 H              1.34481    0.31598   0.475622            0.146407  -0.110535  0.0634469
 H              2.17807  -0.548116    0.57797            0.157077   0.232054  -0.226099
 H              3.05909   0.310703   0.467811           0.0405085  -0.184575  0.0238601
 H              3.66095  -0.614262   0.487462           0.0325798 -0.0443065 0.00879444
 H             0.445743   0.829266   0.131662           0.0612702 -0.0674737   0.246716
 H              1.31174    1.41071    0.49632          -0.0675596   0.180983   0.187424
 H              2.20886   0.871069   0.165911           -0.147106   0.268272   0.228316
 H              3.09962    1.41414   0.467545          -0.0216165 -0.0794299   0.112854
 H              3.98001   0.830371   0.101452           0.0425663   0.245538  -0.306842
 H             0.417971    1.95164   0.158584           -0.108102  -0.268094  -0.107773
 H              1.29347    2.50748   0.486455            0.210626   -0.12162   0.294613
 H              2.19646    1.97239   0.179775            0.176072 -0.0815734  -0.219067
 H               3.0974    2.52772   0.472597           0.0307955   0.184401 -0.0256016
 H              3.99852    1.96382   0.121064            0.224883 -0.0149336 -0.0204643
 H             0.402955    3.08607   0.194072            0.335065   0.111189   0.212034
 H              1.29723    3.62636   0.524707            0.100831   0.354844   0.157824
 H              2.19793    3.06829   0.193985             0.10749   0.106638  -0.173023
 H              3.11679    3.61965   0.508209           -0.157579   0.033619   0.250612
 H              4.00284    3.07835   0.139583           -0.340079   0.035531  0.0574274
 H             0.394892    4.19304   0.233013          -0.0902246 -0.0881016   0.353925
 H               1.3103    4.73522   0.553664            -0.17943  -0.145442  -0.165704
 H              2.20495    4.18733   0.220602           -0.160521  -0.115404 -0.0730791
 H              3.11505    4.72345   0.531704           -0.0641511  -0.0186467 -0.00663881
 H              4.00928     4.1841   0.222514          -0.0679635 -0.0250725  0.0694997
 H             0.437059   0.289923    1.09354            0.210509 -0.0302892   0.146601
 H              1.32675  -0.255804    1.43636           0.0821076  -0.172915  0.0439177
 H               2.2075   0.347278    1.14509          -0.00491513    0.193685  -4.924e-05
 H              3.05041  -0.300569    1.38629          -0.0629544   0.118813  0.0990168
 H              3.99232   0.277488    1.07242            0.137874    0.25896  -0.222988
 H             0.390555    1.39398     1.1149            0.0714944  -0.0902966 -0.00045518
 H              1.29352   0.857815    1.43573           0.0123604 -0.0119832   0.150309
 H              2.20065    1.41586    1.12557           -0.208322  0.0259477  0.0375261
 H              3.11596   0.873252    1.40853            0.023527  -0.204564   0.141652
 H               4.0115    1.40381    1.07234           0.0388145 -0.0172102  0.0608274
 H             0.400074    2.49525    1.13663          -0.0330062 -0.0667327 -0.0424699
 H              1.29775    1.94096    1.44703           0.0681256   0.300935   0.224665
 H               2.1908    2.49661    1.13152            0.140966  0.0329202   0.164629
 H              3.09303    1.94991    1.43851          -0.00256669    0.134086   0.0502579
 H              3.99239    2.50638    1.11223          -0.0877251   0.128239  0.0149078
 H             0.405606    3.59327    1.15977            -0.24689  -0.171112   0.108449
 H              1.30506    3.04255    1.43886             0.102502  0.00288452 0.000827852
 H              2.21948    3.60334    1.14674          -0.0331304  -0.142276  0.0843852
 H              3.09518    3.03671    1.43871          -0.0338826   0.266763  0.0176476
 H              4.00849    3.59306    1.13674              0.1017 -0.0762423 0.00375065
 H             0.401487    4.73369    1.19658           -0.209281   0.303462  0.0453198
 H              1.30592    4.14912    1.46053          -0.0273218 -0.0330241   0.094673
 H              2.22908    4.70982    1.21578            0.177038   0.195843 0.00813172
 H              3.11152    4.13101    1.46051          -0.0843575  0.0593748    0.19169
 H              4.03747    4.72373     1.2181            0.203779  -0.193364  -0.168316
 H             0.416028  -0.287344    2.04479           0.0190023 -0.0597092  -0.056586
 H              1.29813    0.29896    2.35034           -0.113838   0.171611   0.127103
 H              2.20462  -0.276748    2.06117          -0.0975327     0.1914  -0.119336
 H              3.09922   0.290305    2.32991           0.0616645 -0.0717978  0.0745016
 H              3.97187  -0.281399    2.02203           0.0326362   0.275298  -0.208926
 H             0.374587   0.845376    2.04883          -0.0742591   -0.26178  0.0649638
 H              1.29645    1.39132    2.39532           -0.106345   0.156512  -0.148982
 H              2.19435   0.870649    2.07033           0.0158325   0.243349   0.068575
 H               3.1053    1.37422    2.36914            0.131915  0.0571512 -0.0150717
 H              4.02311   0.831062    2.03071           0.0371589  -0.223809 -0.0547403
 H             0.387639    1.94947    2.06791          -0.000255285    0.0326983   -0.0167369
 H              1.28961     2.4773    2.39715           -0.090878 -0.0493917 -0.0933497
 H              2.19803    1.95597    2.08072           -0.250274  0.0620292  0.0685288
 H              3.09447    2.47067    2.39547          -0.0288515 -0.0257386  0.0921543
 H              4.00485    1.93014    2.05426          -0.0654055  -0.127254 -0.0628667
 H             0.382081    3.02702    2.08887           -0.139455 0.00863938  0.0704705
 H              1.29716    3.56774    2.40205            0.154371 0.00983398 -0.0569567
 H              2.18582    3.03221     2.0769           0.0856683  0.0610159 -0.0425668
 H              3.10252    3.56326    2.38549          -0.0939104  -0.172992  0.0448465
 H              4.01864    3.01519    2.08405            0.130136  -0.206119  0.0333276
 H             0.386743    4.12973      2.131           0.0475522    0.14393 -0.0833574
 H              1.32816    4.71066    2.38861          0.00994724  0.0535737  -0.173658
 H              2.18825    4.10777    2.11571            0.122056  -0.120209  -0.126556
 H               3.0772    4.68796     2.4007               0.15894    -0.017653 -0.000914579
 H              4.00314     4.1028    2.10492           0.0146192  -0.208585  -0.128361
 H             0.407065   0.286467    2.99162            0.186825   0.130557  0.0656476
 H              1.31905  -0.298567    3.24913           -0.116729 -0.0486844  0.0741031
 H              2.19152   0.298146    2.98683           0.0155267   0.209085   0.384727
 H              3.09992  -0.304079    3.24157           -0.149034  0.0719155    0.19043
 H              3.98513   0.285028    2.98324            0.0486878  -0.0191782 -0.00259921
 H             0.389333    1.38143    3.04329            0.184057   0.039766  -0.196364
 H              1.28578   0.820718    3.32937           -0.0554099 -0.00892192  -0.0713256
 H              2.20362    1.38724    3.02262          -0.0427483 0.00118678  0.0800156
 H              3.09919    0.82991    3.30414            0.119002  -0.288708  -0.158727
 H              3.99414    1.38759    3.00862           0.0981184  0.0818677  0.0765898
 H             0.386022    2.48363    3.02332             0.10343  0.0152499   0.125195
 H              1.30155    1.93063     3.3473           -0.202741 0.00613456 -0.0505883
 H              2.19106    2.47668    3.02146            0.178967  -0.162751  0.0725035
 H               3.0849    1.91477    3.34241          -0.0923196  0.0680196  0.0203134
 H              3.99041    2.47203    3.02862           0.0727824 -0.0676163  0.0954621
 H             0.387793    3.59344    3.05136             -0.14902 -0.00922344  -0.0184751
 H              1.28162    3.01963    3.34885           0.0702676  -0.045981  -0.172696
 H              2.19948    3.55711     3.0313          -0.0404732 -0.0346584  -0.122856
 H              3.08899    3.00503    3.36317          -0.0952144 -0.0975701  -0.103754
 H              3.99156    3.55817    3.04855          -0.0408635   -0.18847 -0.0561616
 H             0.452921    4.72213    3.03912          -0.0736257  0.0438172 -0.0395573
 H              1.30659    4.09636    3.32334            0.112339 -0.0253076  -0.316749
 H              2.17987    4.70889    3.04401            0.127595 -0.0356495  -0.112067
 H              3.08151    4.10187    3.30911           0.0361623 -0.0868827   0.110144
 H               3.9659    4.69363    3.04115           -0.173183   0.108635 -0.0268381
 H             0.431977  -0.304864     3.9037          -0.0504623  0.0872863  -0.207508
 H              1.31823   0.243193    4.25756          -0.0897441   0.162387  0.0903434
 H              2.20741   -0.30609    3.89078           -0.107556   0.241714  0.0667718
 H              3.09222   0.229215    4.23709          -0.00337491  -0.0694413  -0.0965983
 H              4.03905  -0.297274    3.92249           0.0839341  -0.309897 -0.0298944
 H              0.41133   0.809511    3.97517            0.224259   -0.08929  0.0296379
 H              1.29083    1.36639     4.2948            -0.089512 -0.00837626    0.146414
 H              2.19851   0.816577    3.94671           0.0443551   0.130377  0.0521436
 H              3.07366     1.3427     4.3048           -0.178348 -0.0551014 -0.0979925
 H              3.97807   0.815841    3.95345           -0.149556  -0.287187 -0.0575016
 H             0.396358     1.9349     3.9764           -0.040324  -0.250784  -0.158347
 H              1.29212    2.49139    4.30094            -0.29691   0.120791  -0.161069
 H              2.18647     1.9136    3.95978           -0.188189 -0.0415721  0.0871535
 H              3.07412    2.46051    4.32379           0.0862988 -0.0765664  -0.193333
 H              3.96298    1.90468    4.00487            0.101012   0.141194  -0.123181
 H             0.370689    3.05389    3.99813           0.0377657  -0.147543 -0.0127386
 H              1.31269    3.59383    4.28993          -0.0595565   -0.17852  0.0823064
 H              2.18093    3.01888    3.98208           -0.147173 -0.0344618  -0.056392
 H              3.06211    3.58055    4.31213          -0.0422279 -0.0245482  -0.146537
 H              3.97534     3.0269    4.03087           -0.138279 -0.0577169 -0.0436676
 H              0.48211    4.20014    3.99527            0.215452  0.0216909 -0.0671325
 H              1.42024    5.00075    3.85109           -0.113387   0.160155  -0.149972
 H              2.19593    4.16222    3.97114           0.0460052   0.182036  0.0320177
 H              2.97558    5.01653     3.8371             0.05322 -0.0270797  -0.235661
 H              3.93136    4.14467    3.99627          -0.0514989    -0.3497 -0.0820267
