125

 H             0.785859  -0.645257   0.584287           0.0138687  0.0406414  0.0649566
 H              1.34746   0.290756   0.435817             0.298011 -0.00365977  -0.0897187
 H              2.12535  -0.559289    0.58429            -0.104929 -0.00709592     0.14305
 H              3.05094   0.296997   0.434336          -0.0555045 -0.0236794   0.171707
 H              3.69047  -0.603909   0.504149          -0.0898443  -0.150163  -0.082135
 H             0.428077   0.800919   0.151716            0.163676 -0.0160455 -0.0400146
 H              1.32758    1.37612   0.482193            0.162369 -0.0364305  -0.024879
 H              2.19174   0.857963  0.0993044           -0.158365 -0.0143335  -0.135455
 H              3.11945    1.40744    0.47351           0.0408924  -0.293869 -0.0402129
 H              3.96778    0.81004   0.128855          -0.0485142 -0.0170462    0.17651
 H              0.43497    1.94438    0.14074           -0.119631   0.230483   0.138943
 H              1.31673     2.5043   0.497425          -0.0781774 0.00328416  -0.110265
 H              2.19204    1.95215   0.138393           0.0619793   0.115791  0.0880371
 H               3.1102    2.49754   0.488085           -0.280792  0.0391057  0.0821996
 H              4.01177     1.9428   0.104236            0.0712488    0.028324 -0.00766101
 H             0.407602    3.07117    0.16364          -0.0584579  -0.209354 -0.0253311
 H              1.30203    3.63088   0.515321            0.150773  -0.162536   0.212433
 H              2.20798    3.06154   0.158208            0.329259  -0.229152 -0.0337731
 H              3.10262    3.60959   0.503099           -0.125353  -0.150596  -0.083457
 H              3.98829    3.07976    0.17413            0.190398  0.0964294  -0.278858
 H             0.404046    4.20353   0.256714            0.030403  0.0609533  0.0056893
 H              1.34255    4.74209   0.556611           0.0500499  0.0697162  0.0965073
 H                2.182    4.15905   0.189894           -0.111421  0.0382751  0.0948802
 H               3.0498     4.7357   0.525604           -0.254421 -0.0535786  -0.076331
 H              3.95184    4.18609   0.190767            0.108517   0.257633 -0.0782403
 H             0.452635   0.287469    1.11827           -0.0725251 -0.00600294   -0.123134
 H              1.37615  -0.259749    1.41081            0.122556   0.203396 -0.0572531
 H               2.2172   0.338211     1.1101           -0.218123  0.0857375  0.0921042
 H               3.0462   -0.27137    1.37697          -0.0263257  -0.395989    0.06057
 H              3.95978   0.291911    1.07298            0.181767  -0.138874  -0.343739
 H             0.411415    1.39697    1.11479            -0.174567   0.0359604 -0.00119693
 H               1.3252   0.851797    1.42779            0.101838   0.367029   0.132122
 H              2.21803    1.40373    1.09632             0.113251 0.000560044  -0.0882501
 H              3.10992   0.872807    1.41808          -0.0153265  0.0998034 -0.0496263
 H               4.0341    1.38354    1.10112           -0.131475 -0.0884936  0.0745807
 H             0.418118    2.50484    1.11504          -0.0879385  -0.192374 0.00511807
 H              1.31897    1.94613    1.43783          -0.0114088  0.0752531  -0.062741
 H              2.20973    2.50936    1.11913          -0.0221004   0.115907   0.490999
 H              3.11776    1.96424    1.43443            0.017737  -0.152766   0.123179
 H               4.0185    2.48548    1.10464             0.137585 -0.00157491   0.0821275
 H             0.386622     3.6136     1.1444            0.0348424 -0.00406267  -0.0130215
 H              1.29932     3.0532    1.44316            0.223925  0.0101423   -0.16138
 H              2.20405    3.60605    1.14494           0.0802297  -0.187562  0.0226923
 H              3.09426    3.04245    1.43732           -0.410862  0.0173904    0.17064
 H               4.0082    3.61695    1.15736           -0.206979  -0.238318 -0.0541063
 H             0.448009    4.78262    1.21208          -0.0818777 -0.0458571  0.0921876
 H              1.31533    4.15877    1.46595           -0.104971  -0.294784  0.0368181
 H              2.21116    4.74927     1.2346           0.0615755 -0.0404123   -0.18775
 H              3.09833    4.13909    1.45497            0.216028  0.0496306   0.108202
 H              3.97823    4.73262      1.158           0.0737365 -0.0527373  0.0663228
 H             0.465339  -0.305276    2.04989           0.0759312 -0.0413664  -0.167344
 H              1.32205   0.306487     2.3531           0.0365641  -0.148849  -0.203559
 H              2.20262  -0.272182    2.09739           0.0210248 -0.0329391 -0.0121244
 H               3.0937   0.307511    2.35155           -0.303779  0.0969227  0.0730142
 H               3.9364  -0.280936    2.02542          -0.0546028   0.156427  0.0246436
 H             0.410564   0.840748    2.05178           0.0718175   0.211114 -0.0897896
 H              1.30984    1.39871    2.39211            0.170385   0.033808   0.109762
 H              2.21133   0.851866    2.05143              0.1615 -0.0254517  0.0247311
 H              3.11568    1.38906     2.3792           0.0203271   0.191458  -0.159895
 H               4.0255   0.835038    2.04694           0.0606858 -0.0992151  0.0399707
 H             0.389171    1.93446    2.06131          0.00375007  -0.280454  0.0436304
 H              1.29421    2.48988    2.38276             0.121315     0.15158 -0.00039936
 H              2.20693    1.94093    2.05022           0.0385846   0.125294 -0.0733703
 H               3.0867    2.49371    2.39112           0.0571057   0.141563 -0.0980729
 H              3.99502    1.91764    2.06208           -0.173449   0.250598   0.128783
 H             0.377666    3.05516    2.08427            0.091257  0.0812455  -0.174388
 H              1.28496    3.58862    2.39681          -0.0480003 0.00139069  -0.183042
 H              2.17396    3.03603    2.07288           -0.227076 -0.0155178   0.138668
 H              3.10403    3.57358    2.37948           -0.116097 -0.0389541 -0.0735917
 H              3.99283    3.02532    2.07577            0.109958    0.14462 -0.0713836
 H             0.397524    4.17147    2.13037           0.0669987 -0.0579667   0.106411
 H              1.33974    4.69808     2.4091           0.0654113 -0.0305742 -0.0828931
 H              2.21144    4.11921    2.11472          -0.0948787  -0.212373 0.00456791
 H              3.07257    4.71458    2.38013          -0.000130979     0.034639    0.0352766
 H              3.99154     4.1486    2.12219          -0.00730536    0.111463  -0.0212742
 H             0.405448   0.270924    2.99346           -0.292925  0.0757589  0.0349784
 H              1.32135   -0.32613    3.24382           0.0236057  0.0674638  0.0576573
 H              2.20526   0.305268    3.01591            0.227064 -0.0335663   -0.12502
 H              3.08398  -0.302512     3.2598            0.159373  0.0139807  -0.279243
 H              4.01933   0.265142    2.98442            0.149421   0.147081  0.0641106
 H              0.39368    1.40113    3.01806            0.157513  -0.087295   0.103596
 H              1.28706   0.820419    3.32035            0.103362  -0.119759   0.181246
 H              2.19706    1.37628    3.00976           0.0914458  -0.181722  0.0719078
 H               3.1039   0.821757    3.31778            0.146467  0.0698263    0.10354
 H              4.01448    1.37952    3.01285           -0.217633 -0.0248354    0.03876
 H             0.397503    2.50576    3.04187          0.00282838 -0.0360729   0.115132
 H              1.28716    1.93064    3.34765           -0.196488  0.0864659    0.10299
 H              2.19535    2.45772    3.00078          -0.0411313  -0.240161  0.0325794
 H              3.09979    1.90477    3.34945          -0.0888018   0.204682  -0.101896
 H              3.97238    2.47739    3.03967          -0.00832855   -0.253122   0.0542098
 H             0.377917    3.61164    3.05257          -0.0954552  -0.103291  -0.236116
 H              1.30697    3.01939    3.35927           0.0356904 -0.0604306   0.117605
 H              2.19743    3.57156     3.0313            0.124496  0.0902244  0.0898961
 H              3.09372    3.00959    3.35258           0.0223793 -0.0813927 0.00767049
 H              3.99015    3.56976     3.0415          -0.0106607  0.0306138  -0.155519
 H             0.452611     4.7341    3.07067          -0.0846323  0.0845649  0.0370199
 H              1.31082    4.08337    3.32783          -0.0456872  0.0986962   0.252438
 H              2.21147    4.70443    3.06127          -0.0422569   0.169527 -0.0575211
 H               3.0852    4.08775    3.31236             0.02412   0.149285  0.0937807
 H              3.95248    4.70759    3.06621           0.0703781  0.0470786 0.00717881
 H             0.382306  -0.338061    3.90026           0.0314451   0.103797 -0.0807028
 H               1.2818   0.234174    4.22642           -0.108155 -0.0300705  -0.185024
 H              2.18812  -0.297777     3.9241          -0.0536818  0.0287156  -0.149535
 H               3.0988   0.255407    4.27181           -0.132529  0.0773084 -0.0972628
 H              3.98055  -0.311708    3.93071           -0.114565 -0.0450311  0.0359017
 H             0.366873   0.801623    3.96614            -0.13867  -0.166528   0.153393
 H              1.27986    1.35999    4.29441            -0.15996  -0.105228  0.0596396
 H              2.20118   0.810715    3.97556           0.0860963 -0.0974225  -0.108596
 H              3.07651    1.37136     4.3014            0.160517  -0.179038   0.018322
 H               3.9932   0.829533    3.94583          -0.0327094  -0.167117 0.00984561
 H             0.360472    1.91992    3.98764          0.00960043   0.109821 -0.0281861
 H              1.31342    2.47123    4.30852          -0.0933218   0.213728   0.202719
 H              2.19128    1.90009     3.9511            0.130355  0.0817157    -0.1029
 H              3.07582    2.47387    4.31672            0.168847  0.0233118 -0.0110503
 H              3.97607    1.91729    3.99082          -0.00752536    0.188217    -0.29304
 H             0.406337    3.04691    4.00844           -0.102992  -0.165526 0.00113642
 H              1.32185    3.57708    4.30875           -0.175757   0.321892  -0.125542
 H              2.19805    3.01581    3.96102           -0.110309 -0.0288636  0.0616213
 H              3.06947     3.5922    4.30842          -0.0216857 -0.0155904 -0.0675504
 H              3.97401    3.03896    4.00085           0.0136915    0.03907  0.0976664
 H             0.443273    4.15286    4.02121            0.344763   0.144901  -0.122328
 H              1.43927    5.01191    3.81894           0.0110978  0.0615168  0.0590711
 H              2.18286    4.16455    4.00612          0.00847851   0.136117  0.0650689
 H              2.96325    4.93813    3.93366            0.127738  -0.121809  0.0776259
 H              3.94513    4.14601    4.00552           -0.188833  -0.104047  0.0163433
