125

 H             0.833908  -0.660963   0.531292          -0.0954912 -0.0785749   0.109237
 H              1.35192    0.31491   0.445691          -0.0629633  -0.241175  0.0248584
 H              2.17203  -0.588459   0.669957           0.0670635 -0.0878437 -0.0255155
 H              3.08118   0.268051   0.461438           0.0730148  0.0490844  0.0877076
 H              3.61867  -0.690342   0.601694          -0.0213111 -0.0168952  0.0402716
 H             0.444582   0.846546   0.108862          -0.0573232  -0.221261   0.174429
 H              1.31093    1.43308   0.477377          -0.0335563  -0.111637  0.0726737
 H              2.22668   0.876752   0.138607          -0.0826498    0.17913  0.0597536
 H              3.09487    1.40939   0.493389            0.298501 -0.0225569 -0.0670401
 H              3.98121   0.836474   0.136407            0.175619  0.0158883 -0.0701332
 H             0.431255    1.95778   0.110479           0.0784572  -0.117488   0.234238
 H              1.31719    2.51975   0.488261           -0.265742   0.172007   0.104374
 H              2.21506    1.97596   0.127577             0.19734   0.067019   -0.10385
 H              3.10734    2.51586   0.476534           0.0875769 -0.0601108 -0.0534662
 H              4.01695    1.95968   0.192126           -0.0505968  -0.0598882 -0.00677596
 H             0.413241    3.06858   0.182741            -0.138107 -0.00787901 -0.00823501
 H              1.30227    3.62685   0.505935            0.022163   0.137317  -0.189697
 H              2.21441    3.08042   0.148409           0.0129642  -0.016654 -0.0449629
 H              3.10911     3.6066   0.508166          -0.0385549   0.121904  0.0462477
 H              4.03346    3.08207   0.196745           -0.113623 -0.0147057  0.0350634
 H             0.404055    4.17008   0.242176           0.0840321  0.0769401  0.0442931
 H              1.29682    4.73446   0.544104           -0.151706 -0.0677107 -0.0688809
 H              2.19942    4.19743   0.182338            0.108456   0.152877  -0.103831
 H              3.05693     4.7388   0.553852            0.321001  -0.104488  0.0786655
 H              3.95476    4.21732   0.197018          -0.0877206   0.221368 -0.0922917
 H             0.424915   0.284599    1.07564          -0.0443234  0.0142689    0.12813
 H              1.35938  -0.250408    1.40146            0.264348   0.144526 -0.0297019
 H              2.21093   0.351195    1.12665           -0.316676  -0.018413  0.0420145
 H              3.02399  -0.270483    1.40596          -0.0891194  -0.200825   0.101433
 H              3.95184   0.267444    1.09151            0.105346   0.229711 -0.0739882
 H             0.394702    1.39582    1.08357            0.117555  -0.186307  0.0557281
 H              1.29371   0.863206     1.4034           -0.349718   0.130401  0.0633247
 H               2.2037    1.42694    1.10672           0.0792863   0.240931   0.151495
 H              3.08911   0.857854    1.41853           0.0765292 -0.0427527  -0.215294
 H              3.99839    1.38494     1.1141             0.118695   -0.142899 -0.00475171
 H             0.428924    2.50219    1.09711             0.29007   0.038512   0.136273
 H              1.29753    1.96171    1.44791          0.00386598  0.0665497   0.129354
 H              2.20496    2.50528    1.11222            0.133643   0.281783  -0.185551
 H              3.10802    1.97028    1.43033           0.0174946   0.046897  -0.246234
 H              4.00618    2.50706    1.13856            -0.23738  -0.190594  0.0457953
 H             0.384911    3.60883    1.16659           -0.051127  -0.285441   0.119456
 H              1.30694    3.05458    1.44879           -0.278052 -0.0180178  0.0427227
 H              2.19928    3.60551    1.11299           -0.028007 -0.0626597 -0.0357987
 H              3.11208    3.06096    1.45246          -0.0506826  -0.210675   0.197767
 H              4.01037    3.63383    1.14564           0.0436024   0.344776 -0.0697505
 H             0.397871    4.73795     1.2156             0.162256  -0.0328007 -0.00658857
 H              1.30333    4.11665    1.44786           0.0258819 -0.0128535   0.143865
 H               2.1727    4.72085    1.18402          -0.0228215  -0.123274  -0.109097
 H              3.08773    4.13044    1.45672          -0.0207363   0.116666 -0.0155054
 H              3.95409    4.75743    1.18615           0.0737477 -0.0891913   0.193506
 H             0.457865  -0.301967    2.04046          -0.0324285  -0.100134  -0.109126
 H              1.29896    0.31344    2.34154            0.150376  0.0813581  0.0159395
 H              2.17719  -0.284181    2.09464          -0.0930705  0.0188536 -0.0269758
 H              3.07522   0.299615    2.35106          -0.0547431   0.107657   0.103202
 H              3.92399  -0.323728    2.04775           -0.034358   0.125639  -0.118273
 H             0.381725   0.822622    2.03116          -0.0416758  -0.015012  0.0546236
 H              1.30161    1.38833    2.36088            0.211481  0.0361991  0.0584019
 H              2.20009   0.859645    2.06001          -0.0834938  -0.129756  0.0101829
 H              3.09566    1.39849    2.36474           -0.202966 -0.0593488  -0.186684
 H              3.96424   0.827288    2.03871           -0.0830322 -0.00942667 -0.00362177
 H             0.389004    1.93164     2.0615          -0.0117928  0.0134438   0.116286
 H              1.29601    2.49042     2.4179            0.133836 -0.0801852 -0.0435441
 H              2.20632    1.94789    2.06786           -0.298154   0.026854  -0.169948
 H              3.09747    2.48454    2.39918            -0.23886   0.101687  0.0510832
 H              3.99946    1.92466    2.06747           0.0118796 -0.0839318   0.204606
 H             0.375469    3.03097    2.09191           -0.101104    0.12272  0.0720487
 H              1.28644    3.56954    2.38893           -0.177171  0.0259583   0.132256
 H              2.21739    3.02143    2.06195           -0.020319  0.0207708  -0.280344
 H              3.09939    3.58455    2.40024            -0.334851 -0.00320616    0.234385
 H               4.0218    3.02594    2.08886           0.0775397   -0.26937  -0.212434
 H             0.391829    4.13924    2.15229           -0.0421912   -0.218649 -0.00493246
 H              1.33058     4.6728    2.37735          -0.0915738   0.143159  0.0537839
 H              2.19695    4.09953    2.10009            0.331044  0.0395623  -0.132628
 H               3.0475    4.70998    2.37543           0.0703375 -0.0757797 -0.0245601
 H              3.98057    4.14618    2.12504             0.293882 -0.00887374     0.02753
 H             0.406234   0.270634    2.99147            -0.103756 -0.00276025   0.0905977
 H              1.30103  -0.296797     3.2332          -0.0621985 -0.0130008    0.11214
 H              2.19964   0.295622    3.00553           0.0131978  -0.129649  -0.118087
 H              3.09827  -0.306693    3.25348          -0.0298041 -0.0648675    0.13471
 H              4.00182   0.281146    2.97366           0.0417495  0.0673756  0.0367041
 H             0.410253    1.36538    2.98768           -0.0805568 0.000355151  -0.0100932
 H              1.30026   0.833252    3.30724            0.038967  0.0857101 -0.0705626
 H              2.19256    1.38205    2.99246            0.157933   0.106733   0.137039
 H              3.09491   0.818133    3.29353          -0.0178662 -0.0549989 -0.0384151
 H              3.98278    1.36213    2.99972           0.0428755 -0.0439171  0.0858464
 H             0.403746    2.50066    3.03979            0.138633 -0.0177379  -0.437122
 H              1.30812    1.92582    3.36385           0.0473071  0.0184635  -0.117144
 H                2.199    2.48026    3.04239             0.10888 -0.0389513  -0.238634
 H              3.08957    1.91595    3.33639            0.135621   -0.31197  0.0272616
 H              3.99392    2.45534    3.02066           -0.140857   0.201202  0.0310532
 H             0.410979    3.60441    3.07696            0.120259 -0.0770025  -0.247114
 H              1.30287    3.01816    3.38706           0.0217873   0.165783 -0.0315449
 H              2.19623    3.55888    3.02463           0.0414976  0.0854795 -0.0524963
 H              3.10914    3.00322    3.35309            0.113307 -0.0343655  -0.207484
 H              3.99247    3.57369    3.05248           -0.122776   0.136949  -0.118013
 H             0.506171    4.77811    3.09538          -0.0428416  0.0141509  -0.199895
 H              1.32849    4.09154    3.33641          -0.0440449   0.125551  0.0806499
 H              2.17423    4.67549    3.04268           0.0369274  -0.035585    0.23271
 H               3.0728    4.09416    3.32503          -0.000488199    -0.131139   0.00478088
 H              3.91881    4.72785    3.06665           0.0983842 -0.0394871   0.225433
 H             0.402019  -0.319542    3.90423            0.082286   0.148683  0.0808673
 H              1.30416   0.232574    4.23827           -0.118602   0.108668  -0.311315
 H              2.20304   -0.31267     3.9146           0.0487129  0.0850727   0.185159
 H              3.09761   0.238528    4.24776            0.035156   0.236498 -0.0944732
 H              3.96979  -0.330677    3.92496          -0.0776562    0.11043  0.0948661
 H             0.379077   0.800495    3.93078           0.0305634 0.00588096  -0.151175
 H              1.31257    1.34256    4.28179            0.261711  -0.136086  0.0249512
 H               2.2071   0.808328    3.93935            0.194533 -0.0369943  -0.134433
 H              3.10204    1.35048    4.27199           -0.144326 -0.0167659  -0.061864
 H              4.01925   0.813639    3.94578           -0.184825   0.160904 -0.0973403
 H             0.415127    1.90474    3.96434          -0.0340724  0.0408087 -0.0161518
 H              1.30973    2.45817    4.33289           -0.157105  -0.264034 -0.0997636
 H              2.19752     1.9317    3.97797          -0.0161503 -0.0279221 0.00752341
 H              3.08829    2.46391    4.32426           0.0395779  0.0351178 -0.0512406
 H              3.98912    1.91731    3.97061           -0.175084  -0.144235    0.20414
 H             0.436797    3.03435    4.02964           -0.188635 -0.0870654    0.11674
 H              1.33163    3.59793    4.33337            0.0759992 -0.00962397  -0.0968682
 H               2.2047    3.02319    3.98534            0.164606   0.254729 0.00902321
 H              3.07419    3.57372    4.28606            0.181241 -0.0980849 -0.0731891
 H              4.00418     3.0138    4.00115            0.037499 -0.0762783 -0.0957676
 H             0.488368    4.21326     4.0234           -0.245689 -0.0124145   0.129482
 H               1.4318    5.01388    3.84121            0.165625 -0.0244283   0.266645
 H              2.21018    4.17253     3.9968           -0.131537  -0.197153   0.115375
 H              2.96273    5.02985     3.8292            -0.167705 -0.00760703  -0.0591553
 H              3.93815    4.15895    4.00425            0.122627   0.126404   0.138648
