125

 H              0.86728  -0.664076   0.522254            0.123424   -0.26019  0.0513353
 H              1.33775   0.316134   0.442753          -0.0174727   0.240901  0.0119439
 H              2.08382  -0.529643   0.538985          0.00356181  0.0230752    0.17046
 H              3.05204   0.297558    0.46544           0.0462152   0.103564 -0.0951449
 H              3.64831  -0.616638   0.563411            0.210867  0.0872744   -0.10857
 H             0.409484   0.849654   0.129376           0.0704032  0.0239766 -0.0507914
 H              1.29753    1.40474   0.470738           -0.209979  0.0596386 -0.0524694
 H              2.21522   0.875426   0.134857            0.103013 -0.0724523  -0.139903
 H              3.08169    1.41492   0.477865           -0.122707   0.056547  -0.223804
 H              3.94722   0.850396   0.135582            0.140826 -0.0624894  0.0287897
 H             0.402759    1.96328   0.144583            0.104603  -0.250214 -0.0135117
 H              1.30758    2.53123   0.478222          -0.0702745  -0.146047   0.241529
 H              2.21294    1.96956   0.161719            0.158075 -0.0188423 0.00462513
 H              3.10148    2.51111   0.486251          0.00145387   0.290725 -0.0921683
 H              4.01823    1.94745    0.16082           -0.158961  -0.145735  0.0523512
 H             0.433315    3.07964   0.153264            0.100262  -0.255153   0.111713
 H              1.31126    3.63153   0.495284          -0.0237558   0.025185  -0.157323
 H              2.22399    3.08771   0.158066          -0.0185144 -0.0617679   0.333373
 H               3.0944    3.61228    0.51436           0.0103983  0.0357429   0.230062
 H              3.99691    3.08129   0.152319          -0.00199484     0.15024  -0.0157446
 H             0.382213    4.19705   0.232717           -0.030896  -0.129129  0.0199545
 H              1.29932    4.76917    0.55148            0.210451   0.101787 -0.0212407
 H              2.19244    4.19875    0.24274            0.083927  -0.107867  0.0197855
 H              3.09152    4.73038   0.541397          -0.0639494   0.056402  0.0460268
 H               3.9854    4.19896   0.179025           -0.135042  -0.277529  -0.075136
 H             0.447571   0.276697    1.09792            -0.11761   0.141363 -0.0291066
 H              1.37996  -0.263139    1.40299          -0.0385074   0.141914 -0.0689633
 H              2.21236   0.345117    1.12876             0.019103 -0.00972475   -0.200467
 H              3.03432  -0.246145    1.41829          -0.00725254   -0.209897   -0.292191
 H              3.95835    0.30238    1.09169          -0.0689475   0.313104  -0.152389
 H             0.400621    1.41148    1.10917            -0.122806 0.000248795    0.187263
 H              1.31279   0.866432    1.41705           -0.162162  0.0633151 -0.0108726
 H              2.19506     1.4135    1.10669           -0.119196  -0.065669 -0.0268014
 H              3.09491   0.854094    1.43867            0.127042   0.173378  0.0745981
 H              3.99596    1.39206     1.0992            0.169312  0.0321635  -0.070521
 H             0.409274     2.5116    1.10847            -0.141096  -0.0783422 -0.00644039
 H              1.30794    1.95987    1.41609          -0.0350176  -0.106955   0.248794
 H              2.21109    2.50621    1.10724            0.101073  -0.170173  0.0468571
 H              3.09733    1.94021    1.43439          -0.0415314  0.0849795  0.0105594
 H              4.00773    2.50476    1.11239          0.00744551  0.0801901 0.00154562
 H             0.400836    3.62063    1.16086          -0.0301092 -0.0236373  0.0934927
 H              1.29847    3.04695    1.42868          -0.0547583  -0.135418 -0.0188074
 H              2.19904    3.59068    1.14995          -0.0449055 -0.0321257  0.0257336
 H              3.09665    3.03881    1.44756           -0.171308   0.311858 -0.0488885
 H               4.0037    3.60708    1.14355            0.235726  -0.074472   0.300124
 H             0.442847    4.74705    1.21101            -0.10483   0.177082  -0.210445
 H              1.31579    4.12708    1.47474          -0.0259182  0.0805669   0.139139
 H              2.19955    4.70725    1.23425             0.045162 -0.00203263  -0.0221648
 H              3.08173    4.11524    1.46997            0.306659 -0.0296102  0.0454271
 H              3.92577     4.7633    1.18867            0.128168  -0.043023  0.0554647
 H             0.481982  -0.328931    2.04588           -0.165604  0.0184909  0.0194248
 H              1.31029   0.311864    2.35278           0.0539732   0.162963  -0.139118
 H              2.20241  -0.310936    2.12073           -0.278764  0.0110443   0.011483
 H              3.08495    0.29595    2.35898            0.112019   0.186113  0.0637331
 H              3.92794  -0.280605    2.04585           0.0992427  0.0876821  -0.113808
 H              0.40625   0.822168    2.04694          -0.0996761  0.0614062  0.0926552
 H              1.30227    1.40433    2.36906           -0.129375 -0.0625537  0.0286929
 H              2.20231   0.845698    2.07918            0.230286   0.321917    0.21016
 H              3.08666    1.39928    2.39736            0.062744  0.0215887  -0.127863
 H              3.97816   0.815958     2.0596           0.0624408   0.145066   0.203761
 H             0.414376     1.9499    2.05524          -0.0574769  -0.214584 -0.0166475
 H              1.31352    2.47908    2.36693            0.278448  -0.151796   -0.10927
 H              2.20431    1.93202    2.05994           0.0156299   0.228318 -0.0843455
 H              3.07557    2.48744    2.39817            0.0667243 -0.00894626  -0.0194943
 H              3.98278    1.93938     2.0695          -0.0380796  0.0056969 -0.0745193
 H             0.385097    3.04611    2.07286          -0.0639514   0.184149 -0.0392957
 H              1.29868    3.55475    2.40758           0.0522154 0.00211959  0.0309943
 H              2.19293    3.01472    2.06353           0.0802886  -0.271852  0.0466518
 H              3.10081    3.56633    2.40489          -0.0614207  -0.212112 -0.0221386
 H              3.98394      3.042     2.0849            0.127926  0.0145817   0.171195
 H              0.37135    4.15079    2.11878          -0.0584901  0.0565074 -0.0597112
 H              1.31206     4.6702    2.41401           -0.114964   0.189251 -0.0573793
 H              2.18971    4.08746     2.1303           -0.155889  -0.171562  -0.199312
 H              3.07198    4.69975    2.36515           0.0456564  0.0498248  0.0191916
 H               3.9959    4.14436    2.09095           0.0281827  -0.198222   -0.10927
 H             0.402704   0.280921    2.97509            0.282825 0.00375989  0.0874708
 H              1.31714  -0.286396    3.25051           -0.035408   0.049498   0.281953
 H              2.19522   0.301271    3.00434          -0.0547865 -0.0881888   0.211714
 H              3.07243  -0.297677    3.26843           -0.120339 0.00915564   -0.13033
 H              4.00056   0.248983    2.99491           -0.051154  0.0142183 -0.0972636
 H             0.385181    1.37411    2.99262            0.190577   0.102924  -0.095011
 H              1.28644    0.83486    3.31317          -0.0965388  -0.132493 -0.0104298
 H              2.19782    1.38638    3.01094           -0.134289  0.0264611   0.339543
 H              3.10216   0.825576    3.32812           -0.356832  -0.293498  0.0519191
 H               3.9928    1.35879    3.01278            0.121905 -0.0793407 -0.0496767
 H             0.408961    2.48252    3.02114           -0.146812 -0.0534817   0.110445
 H              1.31993    1.91733    3.32937          -0.0715006  0.0911418 -0.0179336
 H              2.19057    2.45585    3.02334            0.137887 -0.0972673   0.259985
 H              3.09936    1.92665     3.3418           -0.127721  -0.119268  0.0048143
 H              4.01114    2.46396    3.03251           0.0351404 -0.0541544  -0.123305
 H             0.416358     3.5897    3.04626          -0.0808819   0.015202  -0.285211
 H              1.30744    2.99734     3.3553             0.11683  0.0286217   0.158695
 H              2.19428    3.53295    3.04729          -0.00912351    -0.01414   0.0902154
 H              3.10133    3.01363    3.36296          -0.0126189   0.170606 -0.0820327
 H              4.00659    3.59277     3.0477           -0.135478  0.0745686  -0.251857
 H             0.465701    4.72706     3.0816           0.0708508   0.168121  0.0656841
 H              1.33368    4.06586    3.33535          -0.0457115   0.163471 -0.0165769
 H              2.21711    4.68216     3.0426            0.120562  -0.232754  0.0253615
 H              3.08741    4.07395    3.31198            -0.10224  0.0824182   -0.21816
 H              3.91631    4.71161    3.02899             0.149504 0.000560704   -0.110263
 H             0.437387  -0.323415      3.883            -0.11362  -0.180119  -0.101681
 H              1.30498   0.239337    4.23477            0.103123  0.0406747  -0.127519
 H              2.20309  -0.325178    3.92052           -0.109438   0.146484  -0.095292
 H              3.09836   0.257871    4.25384          -0.000919363    0.0622702    0.0723553
 H              3.97991  -0.297539    3.96945            0.164462   0.249341  0.0893935
 H             0.382329   0.803158    3.93571          -0.0471196 -0.0596797 -0.0787189
 H              1.29267    1.34486    4.29666            0.013752   0.152582  -0.030588
 H              2.19654   0.823493    3.96244            0.338181  0.0315358  -0.154701
 H              3.08062     1.3601    4.29244           0.0497802  -0.200948  0.0325572
 H              3.99255    0.82205    3.97954          -0.0643337   0.102438  0.0151652
 H             0.420966    1.91291    3.98841          -0.0982477 -0.0464406 -0.0304628
 H              1.32162    2.45938    4.31926           -0.164981  0.0506615  0.0776692
 H               2.2126    1.93219    3.97857           -0.119107  -0.189279   0.213194
 H              3.10396    2.46935    4.31001          -0.0198312  0.0109925  -0.111542
 H              3.98695    1.91542    3.97172           0.0622177  -0.223233 -0.0157709
 H             0.414336    3.06441    3.98924             0.132564    0.119671 -0.00881436
 H              1.31616    3.57409    4.31063           -0.172954   0.113334  0.0560938
 H              2.18947    3.02401    3.97201           0.0238924  -0.309534  0.0856581
 H              3.07186    3.60546    4.31436           0.0457649 -0.0534136     0.1173
 H              3.99421    3.02851     3.9977          -0.0029363 -0.0390728  0.0126112
 H             0.470872    4.17008    4.02833            0.203876 -0.0366458 -0.0220548
 H              1.42603    5.03181    3.75018            0.0475407    0.102511 -0.00631958
 H              2.20015    4.14702    3.99899           0.0291726  -0.156215 -0.0364442
 H              3.02927    4.95512    3.87802           -0.108064 -0.0840775  -0.211748
 H              3.94447    4.15924    3.99424           -0.297175  0.0181978 -0.0129424
