125

 H             0.854786  -0.728584   0.587732            0.324151  -0.229083   0.085018
 H              1.34833   0.273412   0.466166           -0.263047 -0.0898535  0.0178501
 H              2.18766  -0.591434   0.649529            0.128442    0.12019  0.0496549
 H              3.07083   0.304158   0.456368          0.00700857 -0.0714469 0.00592188
 H              3.63021  -0.624452     0.5291           0.0744466  -0.126422 -0.0136784
 H              0.39745   0.832326   0.181913           0.0650547  -0.255183   0.257568
 H              1.29175    1.39631   0.472447           0.0763036   0.115988  0.0605967
 H              2.19659   0.857011   0.116712           -0.129893   -0.16653 -0.0874134
 H              3.08694    1.40372   0.453841           -0.131179  -0.285903  -0.186163
 H              4.02844   0.842159   0.137488           0.0560733  -0.242713   0.187462
 H             0.403539    1.95108   0.180435            0.244944   0.022289   -0.24123
 H              1.29016    2.52261   0.475656          -0.0454084   0.134371  -0.117009
 H              2.17617     1.9818   0.145836           0.0664696  -0.134743 -0.0379999
 H              3.07854    2.51052   0.478572            0.302781   0.208108 -0.0408688
 H              3.98898    1.95963   0.126466          -0.0129469  0.0391783  -0.155983
 H             0.401731    3.08076   0.175092          -0.0879946  0.0670137  -0.171237
 H              1.31193    3.61317    0.49973           -0.123487 -0.0934822   0.321149
 H              2.18046    3.07855   0.163363           0.0267003   0.165067  0.0158672
 H              3.10621     3.6222   0.515046            0.141352 -0.0024721   0.141379
 H              3.98069    3.06088   0.151459            0.347093  0.0532849   0.332415
 H             0.424136    4.24149   0.235452          -0.0189688  -0.239505  0.0326019
 H              1.36031    4.76042   0.553141          -0.0602184  -0.157649   0.050595
 H              2.21609     4.1822    0.20093           -0.160016  0.0416673  -0.132613
 H              3.08068    4.74536   0.556401            0.208416  0.0193381 -0.0208782
 H              3.97511    4.18203   0.196441          -0.0473959   0.125638    0.18935
 H             0.422674   0.233978    1.11016          -0.00958478  -0.0606973    0.281857
 H              1.35139  -0.261383    1.42189          -0.0737989   0.119891   0.123422
 H              2.20404   0.341438    1.13422          0.00816273   0.106698    0.22942
 H              3.07554  -0.263632    1.39484            0.288819  -0.076754  -0.105641
 H              3.97526   0.293201    1.08106           -0.288062 -0.0867437   0.229058
 H             0.380061    1.39911    1.13025           0.0383495   -0.10051 -0.0843809
 H              1.28433   0.861403    1.42125          -0.0920896 -0.0336479  -0.143219
 H              2.19529    1.40706    1.09541           0.0447596  0.0398221  -0.112906
 H              3.09844   0.864252    1.41036          -0.0781218   0.118574  -0.159871
 H               4.0155    1.41851    1.09116          -0.0567052   0.063165 -0.0255257
 H             0.382577    2.50756    1.12072           0.0221978   0.172338  0.0987447
 H              1.29616    1.94219    1.41102           -0.128115  -0.230257 -0.0927092
 H              2.18667    2.50286    1.11271           0.0161016 -0.0633588   -0.13777
 H              3.09297    1.95682    1.43227           0.0154211 -0.0930622  -0.230592
 H              4.00166     2.5189    1.13029            0.274813   0.122469  -0.120084
 H             0.417164     3.6284    1.13621           -0.130835  -0.216163   0.014634
 H              1.30333    3.02758    1.43904            0.250583 -0.0120591  0.0468336
 H              2.20464    3.59681    1.12612           0.0611248   0.347626   0.108318
 H              3.09943    3.03154    1.44673          -0.0785261   0.192035  0.0883256
 H              4.01774    3.62378    1.12426           0.0890673  -0.016142 0.00546136
 H             0.457451    4.75593    1.21008          -0.0874434 -0.0191748  0.0249471
 H              1.32139    4.13204    1.44986          -0.0986802  -0.261786   0.169238
 H              2.22269    4.72704    1.22036          -0.0352392 -0.0721017   0.016252
 H              3.10191    4.12597    1.46894            -0.19379 -0.0874311   0.394913
 H              3.98016    4.72756    1.18355           -0.153414  -0.042421     0.1011
 H             0.462999  -0.322373    2.08022           -0.117277 -0.0760498 -0.0426628
 H              1.31954   0.302992    2.37033          -0.0123922   0.175432   0.127504
 H              2.21735  -0.264756    2.07925            0.146133  -0.109288  0.0493636
 H              3.09696   0.327103    2.33896          -0.0332296   0.156282  0.0605363
 H              3.97547  -0.285758    2.02641          -0.0909668  0.0878349  0.0298734
 H             0.387557   0.824222    2.07107            0.154822 -0.0476917  -0.266796
 H              1.29343    1.39776    2.37458           -0.112016  0.0934641  0.0615493
 H              2.19361   0.866578    2.04567           -0.0569979  -0.0113736 0.000539136
 H              3.10404    1.41044     2.3855          -0.0356604  0.0120766  0.0301681
 H              4.00436   0.851461    2.03729          -0.0909993   0.164149   0.095429
 H              0.39544    1.95348    2.06479           0.0152124  0.0910368  0.0194182
 H              1.30002     2.4721    2.37351            0.047317  -0.210356    0.11753
 H               2.1936    1.94568    2.06296           -0.218864  -0.032896  -0.251797
 H              3.11017    2.48655     2.3904           -0.147798 -0.0312435 -0.0899773
 H              4.01259    1.94199     2.0628          0.00852979 -0.0778528  -0.191506
 H              0.41017    3.04141    2.08584           0.0132331  0.0282834  0.0204178
 H               1.3037    3.56225    2.37671          -0.0643815   0.268751  0.0384496
 H              2.20084    3.02395    2.07002           -0.0981912  -0.0181009 -0.00866266
 H              3.10302    3.56783    2.40858            0.138506   0.122094  -0.110981
 H              3.99694    3.04949      2.095           0.0951747  -0.254029  -0.125058
 H             0.405207    4.13844    2.11541            -0.204495   0.0890983 -0.00847033
 H              1.33542    4.69105    2.38846           -0.278875 -0.0608319  0.0235493
 H              2.21588    4.09661    2.09925           -0.125968   0.314065  0.0211558
 H              3.08642    4.69567    2.40774           -0.0336465 -0.00754641   0.0414915
 H               3.9919    4.15135     2.1181          -0.0650936 -0.0451436 -0.0927729
 H              0.38585   0.277119    3.01351             -0.02739   0.0873081 -0.00257602
 H              1.29113  -0.316262    3.28061          -0.0977023   0.101447 -0.0821722
 H              2.21095   0.313401    2.98152            0.119694   0.277131  -0.133482
 H              3.08552  -0.285889    3.22425          -0.0565894  0.0208981   0.131189
 H              4.00947   0.295145    2.96874           -0.105482 -0.0202975  0.0625474
 H             0.373374    1.37956     2.9968          -0.0400804  -0.234109   0.247904
 H              1.28964   0.825166    3.30672           -0.107435  0.0810852  -0.219866
 H              2.20463    1.39513    2.98951           0.0177257  0.0240079 -0.0706269
 H              3.10522   0.841211    3.30387           -0.157136   0.158704 -0.0631787
 H              4.02935    1.37645    3.02054          -0.0497058 0.00563609   0.190707
 H             0.393686     2.4889    3.01387            0.178519   -0.13476  -0.127454
 H              1.29374    1.91354    3.31588           0.0348442  -0.176799   0.206763
 H              2.21134    2.46787    3.00543           0.0170158  0.0715771   0.105539
 H              3.09976    1.93143    3.33745            -0.10209   0.214184  0.0372438
 H              4.02196    2.48395    3.04274           0.0485158 0.00550078  -0.238275
 H             0.388776    3.59012    3.04178             0.200479 -0.00178033 -0.00165839
 H              1.29308    3.00257    3.33104             0.18299   0.312856 -0.0404951
 H              2.19985    3.55352    3.02003          -0.0877319    0.11687    -0.2698
 H              3.09208      3.002    3.35404           -0.170874   0.234935 -0.0426636
 H              4.01964    3.58475    3.07077           0.0777814 -0.0769037   0.112105
 H             0.486331    4.77098    3.09635             0.14481  -0.192921    0.14634
 H              1.31088    4.06797    3.33482            0.169576    0.17612   -0.15923
 H              2.18175    4.67785    3.04792            0.069488  0.0368696   0.143624
 H              3.07801    4.07854    3.33913            0.155839  -0.207131   -0.10217
 H              3.95655    4.70192    3.10355            0.262137  -0.193661 -0.0765929
 H             0.395538  -0.299985    3.94751          -0.00914774  -0.0255527  0.00251698
 H              1.29808   0.262256    4.22829          0.00575519  -0.117395  -0.107267
 H              2.19457  -0.292403    3.88703           -0.152256 -0.0829668  -0.146167
 H               3.0733   0.252205    4.20805          -0.0354854 -0.0829639  -0.217604
 H              3.96919  -0.300504    3.91454            0.226669 -0.0176619 -0.0442738
 H             0.375336   0.834577    3.96109           -0.150828 0.00151704  -0.094256
 H              1.28847    1.37015    4.29731            0.139214 -0.0469076  -0.065131
 H              2.18908   0.830662    3.94973           0.0832126 0.00999945  0.0828972
 H              3.10335    1.35883    4.26063          -0.0680633   0.125237 -0.0820975
 H              3.99409   0.795183    3.96117          -0.0982725 -0.0109598 -0.0279955
 H             0.386747    1.92736    3.96771             0.130464 -0.00322892   0.0320935
 H                1.298    2.47348    4.29717           0.0250004  0.0124334   0.058592
 H              2.18663    1.93239    3.97712           0.0478342  -0.019017  0.0863159
 H              3.07403    2.46197    4.32073          -0.0236604   0.265599  -0.119772
 H              3.99184    1.90803    3.99133           -0.194575  -0.204127 -0.0380986
 H             0.404226    3.04277    3.98074          -0.0030837   0.129239 -0.0721959
 H              1.32546    3.56454    4.32033           0.0732134   0.231545  0.0578851
 H              2.18497    3.00907    3.96443           -0.142128  -0.010705 -0.0194986
 H              3.05884    3.57134    4.31137          0.00264986  -0.106244  -0.105656
 H              3.98042    3.01909    4.01499          -0.0755671 0.00826704  -0.238102
 H             0.460081    4.15165    4.00993           0.0136175  0.0978951   0.040502
 H              1.43136    4.98242    3.86118            0.152762 -0.0484513  0.0971256
 H              2.20371    4.14102    3.97378           -0.113312    0.10222   0.146035
 H              2.92289    4.97284    3.88154           -0.140803  -0.326889   0.206678
 H               3.9244    4.13234    4.03455            0.203843 -0.0152693 0.00328123
