125

 H              0.82631  -0.659702   0.548526          -0.0719859  0.0491864   -0.01413
 H              1.32814   0.303436   0.478771           0.0779256  0.0301042   0.118398
 H              2.08846   -0.55326   0.594411          -0.00878312  -0.0138565   0.0854625
 H              3.06229   0.276085   0.473445           -0.112741   0.232794 -0.0242822
 H              3.64853  -0.636769   0.556665           0.0114441  -0.038524 -0.0723619
 H             0.414074   0.845715   0.137526          -0.0453367 -0.0247004 -0.0827067
 H              1.28882    1.41599   0.471088           0.0700531  0.0413392   0.186078
 H              2.19756   0.855378   0.126774           -0.093883 -0.0782686  -0.101353
 H              3.07531    1.40223   0.472946          -0.0818534  0.0579669  -0.125116
 H              3.94988   0.824932   0.115948          -0.0547988  0.0553976 -0.0363708
 H             0.405371    1.97587   0.125693          -0.0623004 -0.0527547 -0.0298804
 H               1.3067    2.52763    0.48595           -0.105987  0.0243911   0.094346
 H               2.1894    1.97089   0.140321          -0.0685519  0.0823546   0.151774
 H              3.08402     2.5147   0.483382           0.0304435  0.0461128   0.136069
 H              3.96782     1.9491   0.109051          -0.0405109  -0.160929  -0.117979
 H             0.390346    3.08492   0.171195            0.336342   0.123064  0.0545961
 H              1.30841    3.62197   0.489916             0.176732    -0.11924 -0.00658055
 H              2.17638    3.06787   0.154963           0.0186318 -0.0162442   -0.22296
 H               3.0885    3.60359   0.497855            0.159097  0.0194659  0.0901342
 H              4.01267    3.05934   0.191798           -0.283961  0.0757191 -0.0117882
 H             0.409753    4.19758   0.195744          -0.0153275  -0.147151  -0.113034
 H              1.32327    4.73131   0.540136             -0.1871  0.0634267  0.0216827
 H              2.20648    4.17132   0.228676          -0.0863463   0.210659  -0.224528
 H              3.10326    4.70806   0.564892           0.0983378  0.0640457  0.0226239
 H              3.99237    4.16672   0.192596          -0.0122425   0.185616   0.351381
 H             0.421164   0.274415    1.09884           0.0556099 -0.0747785  -0.243448
 H              1.34318  -0.257748     1.4238             0.16635  0.0591264  0.0894533
 H              2.20499   0.342237    1.11959           0.0215164   0.118411  -0.130075
 H              3.06208  -0.272242    1.41971            -0.16906  -0.100663   0.129501
 H              3.99861   0.298972    1.07201           -0.020344   0.105164   0.340143
 H             0.375505    1.41818    1.09147          0.00844119  0.0401123 -0.0325528
 H              1.30927   0.867313    1.41508           -0.207687 -0.0809901 -0.0231587
 H              2.20519    1.41981    1.10907           0.0466388 -0.0924265  0.0554973
 H               3.1011   0.847652    1.41297            0.333625  -0.232307  -0.267889
 H              4.01284    1.39535    1.07189           0.0897599   0.122028   -0.15804
 H             0.388158    2.50736    1.09969           0.0680657  0.0756746   0.149903
 H              1.28991    1.96635    1.40912            0.159101  0.0414929  0.0786184
 H              2.20205    2.49745    1.13392          -0.00578796   -0.231682    0.204596
 H              3.09105    1.94351     1.4226            0.112352 -0.0820102  0.0202348
 H              4.01759    2.49456    1.12101            0.145063  -0.145934 -0.0291347
 H             0.400895    3.63132     1.1475            0.175147   0.159623  -0.340895
 H              1.28025    3.05817    1.44273          -0.0834614   0.104524 -0.0396193
 H              2.20603    3.57935    1.12983            0.121953  -0.167469 -0.0508137
 H              3.10142    3.03328    1.43911           0.0558489   0.035874   0.119011
 H              4.01702    3.60248    1.14939           -0.123162  0.0750779 -0.0630436
 H             0.440249      4.748    1.21215          -0.0156235 -0.0340668  0.0968909
 H              1.31449    4.13778    1.46554          -0.0266912 -0.0831026 -0.0862066
 H              2.21106    4.70146    1.20664          -0.0859913   0.143635 -0.0330177
 H              3.11015    4.10142    1.47592             -0.15099  -0.0847613 -0.00647423
 H              3.99042    4.69033    1.18807          -0.0022941  -0.202638 -0.0549058
 H             0.464269  -0.303283    2.05525           -0.214079    0.12824  -0.053306
 H              1.33448   0.302514    2.35312          -0.0452859  0.0186662  0.0397164
 H              2.20959  -0.271207    2.09162           -0.095834  0.0852509  -0.117202
 H              3.09633   0.311939    2.34969           -0.077912  0.0852954  -0.111304
 H              3.99451  -0.257245    2.01583             0.317627   0.0349689 -0.00103291
 H             0.420712   0.827884    2.03734           -0.157676  -0.104167   0.246388
 H              1.30245    1.40298    2.35344          -0.0606585  -0.176838  -0.127936
 H              2.19892   0.865403    2.07054            0.109034  -0.143629  -0.170313
 H              3.11336    1.37968    2.37442           0.0738746  -0.145565  -0.205247
 H              4.01157   0.848238    2.03137           -0.0712316 -0.00156322    0.152222
 H             0.390984    1.94286    2.04977           0.0941204  -0.171755 -0.0302771
 H               1.3011    2.47435    2.38973           0.0527636  -0.165832   -0.10608
 H               2.2226    1.93853    2.06909          -0.0210024 -0.0731628  -0.116921
 H              3.10018    2.48147    2.39042           -0.0455285  -0.0763048 -0.00918094
 H              4.00422    1.93521    2.06491           -0.059999  0.0457798   0.136475
 H             0.374326    3.05878    2.08463          -0.0518852  -0.167163  0.0675899
 H              1.29616     3.5683    2.40632           -0.244838  0.0121176   0.213786
 H              2.20208    3.03013    2.08477          -0.0107063  -0.220687  0.0539169
 H              3.11098    3.57093    2.40946            0.220901  0.0831482  -0.100812
 H              4.00165    3.03214    2.08332            0.194038 -0.0927443 -0.0796837
 H             0.419349    4.17227    2.14849            0.165448 -0.0690276   0.142759
 H              1.33556     4.7216    2.37237           -0.106032  0.0825042   0.139781
 H               2.1988    4.10171    2.12208           0.0228722  0.0546892    0.33473
 H              3.07166    4.69647    2.37717           -0.163655    0.21604  -0.151387
 H              4.00923    4.13235    2.12682           0.0722661 -0.0732743 -0.0495774
 H             0.412887   0.266032    2.98565          0.00394435  -0.290405    0.15147
 H              1.32524   -0.30919    3.24475           0.0460253   0.106017  0.0834816
 H              2.22495   0.298792    3.01548           0.0414122  -0.126768  0.0270754
 H              3.11495  -0.301195    3.26033            0.0567459   0.0986429 0.000829239
 H               4.0225   0.274079    2.98994           0.0678854    0.06637   0.204312
 H             0.402789    1.37192    2.99662            -0.114936  -0.0787671 -0.00584898
 H              1.29703   0.818707    3.30079            0.200192  -0.013577   0.163172
 H              2.19707    1.38678    3.02219             0.38206   0.185466 -0.0496498
 H              3.11161   0.826163    3.30765           -0.229778   0.173363 0.00697879
 H              4.01193    1.38285    3.01923          -0.0353561  0.0875763  0.0245016
 H             0.380582    2.47764    3.01459          -0.0731435  -0.253532  0.0575255
 H              1.29701    1.91791    3.32673             0.11166   0.300406  0.0908693
 H              2.19577    2.46218    3.01195           -0.196915  0.0907079    0.10899
 H              3.08187    1.93137    3.34568            0.116233   0.074625  -0.364951
 H              3.97157     2.4813    3.03837          -0.0918125    0.11589  -0.117192
 H             0.401298    3.59333    3.06495            0.227757 -0.0944049 -0.0240519
 H              1.29573    3.00677    3.34389           -0.108764   0.179439   0.116025
 H              2.20569    3.55181    3.05491          -0.0823557   0.164048  -0.115832
 H              3.09761    3.01047     3.3541            0.169367  -0.124884  -0.100432
 H              3.99102    3.57746    3.06263          0.00459533 -0.0348273 -0.0846293
 H             0.489504    4.76939     3.0917          -0.0354938   -0.13357  -0.165885
 H              1.31215    4.10008    3.31887            0.176641   0.124606  0.0722757
 H              2.21213    4.67026    3.06921            0.0570915  -0.0109578 -0.00910888
 H              3.07787    4.08491    3.33256            0.236837  -0.022921  0.0758417
 H              3.91958     4.7121    3.05115           -0.101414  0.0320875  -0.172182
 H             0.433706  -0.328181    3.93908           -0.140751   0.269198   0.175938
 H              1.32756   0.232614    4.22242           -0.206934  -0.117409  -0.199945
 H              2.19911  -0.304766    3.90315          -0.0326997   -0.20539   0.279426
 H              3.09543   0.250822    4.25002          -0.00131479    0.229277   -0.284245
 H              4.01961  -0.299029    3.93864           -0.104866  -0.151645  -0.271335
 H             0.404875   0.814463    3.95884           0.0935116  0.0504186  -0.117119
 H              1.27227    1.35397    4.28249           -0.134362  -0.149686   -0.11906
 H              2.19508   0.833125     3.9534           -0.289543   0.240845 -0.0668562
 H              3.09012    1.37837    4.27873          -0.0605024   0.115604   0.223421
 H              3.99529   0.809977    3.95241            0.011428   -0.16676  0.0980627
 H             0.381523    1.91859    3.95125            0.172024  -0.210953   0.122891
 H              1.27681     2.4609    4.29964           0.00999684   -0.192116 -0.00426843
 H              2.16869      1.916    3.99417           0.0421082 -0.0509267  0.0797326
 H              3.07555    2.49455    4.31688          -0.0717204  0.0430277   0.153432
 H              3.97989    1.94374    3.96941          -0.0863839  -0.010415 -0.0660676
 H             0.388909    3.03359    3.97014          0.00602377   0.179923  -0.285752
 H              1.29563    3.56236    4.29166              0.0407   0.215294  0.0834093
 H                2.185    3.02744    4.00163           -0.126313   0.065592 -0.0349182
 H              3.07792    3.57413    4.30328          -0.0947652 -0.0938666  0.0290574
 H              3.97869    3.04678    4.02865            0.138393 -0.0303284   0.109809
 H             0.460109    4.17236    4.02688           -0.202186  0.0518897 -0.0673933
 H              1.44647     4.9867     3.8867          -0.0504348   0.145006   0.197952
 H              2.17999    4.14792    4.02951            0.257717  0.0237712    0.14797
 H              2.96644     4.9845     3.8766            -0.154164 -0.00199519  -0.0284282
 H              3.93113     4.2115     4.0126          -0.0557339   -0.20586 -0.0804531
