125

 H             0.797142  -0.660115   0.555237            0.149882 -0.0404457  -0.177321
 H               1.3406   0.322187   0.468342            0.173381  0.0992303   0.052614
 H              2.19092  -0.482511    0.51507           0.0951477  -0.102218 -0.0166535
 H               3.0544   0.284766   0.464037            0.0891876 -0.00863931   -0.360112
 H              3.62079  -0.622675   0.570463           -0.230063  -0.072513 -0.0112304
 H             0.401543   0.846956   0.168391           0.0802993 -0.0613281    -0.2796
 H              1.28561    1.41556   0.481199           -0.139321 -0.0159911  0.0793512
 H              2.21034   0.883787   0.160189           0.0153244  0.0993727  -0.170974
 H              3.08813    1.41171   0.479791           0.0890295  0.0154398  0.0321037
 H              3.92737   0.850542  0.0878204           0.0773272  -0.110142  0.0835721
 H             0.368531     1.9569   0.176626           -0.105089   0.155264 -0.0948995
 H              1.30237    2.50915   0.473316          -0.0256289  0.0820895  -0.197248
 H               2.1778     1.9608   0.150397           -0.109614   0.124743 -0.0816777
 H              3.09671    2.48871   0.491183          -0.0241516  0.0188564   0.151625
 H              4.00777    1.95531   0.127297            0.294712   0.110116   0.187876
 H             0.401519    3.09664   0.158363            0.126601  0.0570334 -0.0287843
 H              1.31128    3.61328   0.489546          -0.0227056  -0.395289 -0.0724753
 H              2.21434    3.06211   0.179787           0.0444158   0.108606  0.0179127
 H              3.10893    3.57923   0.534414          -0.0387008  0.0666825   0.148732
 H              4.02775      3.074   0.164102           0.0860223 -0.0328314  -0.118269
 H              0.42151    4.21041   0.175085          -0.0816058 -0.0666818  -0.127479
 H              1.35908    4.71998   0.530129           -0.262624  0.0935494  0.0896337
 H              2.23327    4.15346   0.221998          -0.0778154  -0.077242  0.0952018
 H              3.10564    4.70349   0.533936           -0.275695  0.0684005 0.00454751
 H              3.98208    4.16753   0.196388           -0.104671  -0.202014 -0.0169216
 H             0.442278    0.26012    1.09408            0.171265   0.334708   -0.09506
 H              1.34665  -0.275848    1.40565          -0.00921695   -0.135839   0.0521779
 H               2.1905   0.355027    1.13892           0.0302617 -0.0107517  0.0837186
 H              3.04402  -0.253687    1.43535           -0.301315   0.114943 -0.0345592
 H              3.97327   0.296553    1.06572           -0.412755  0.0595954 -0.0755755
 H             0.397388    1.40064    1.12511           -0.100486 -0.0799243   -0.16432
 H              1.29301   0.875702    1.42616            -0.03178    0.11075   0.206815
 H              2.19267    1.40831    1.10903           0.0902866   0.161419 0.00384742
 H              3.10544    0.85739    1.41654           -0.123267   -0.11505 -0.0183969
 H              3.99122    1.39569    1.08856            0.123009   0.168805   0.118886
 H             0.385203    2.50695    1.12313          -0.0262134  -0.119845  -0.112957
 H              1.29339    1.95599    1.44056          -0.0514256   -0.11278  0.0207066
 H              2.19565    2.49757    1.11857            0.206359  0.0400261 -0.0657216
 H              3.08937    1.94752      1.447           0.0855314  0.0138339  0.0322817
 H              3.99498    2.49111     1.1231          -0.0623167 -0.0278266   0.125351
 H             0.414516    3.62706    1.13591             -0.168896 -0.000168894     0.105267
 H               1.2953     3.0431    1.44305          -0.0159363   0.165097  -0.166931
 H              2.22072    3.58685    1.15174            0.109732   0.112231  0.0801291
 H              3.10463    3.01799    1.47719          -0.0341631  0.0643787  0.0509529
 H              4.01301    3.59405    1.13424             0.206579 -0.00488517    0.122321
 H             0.447183    4.72106    1.17216             0.14524 -0.0638401  -0.227947
 H              1.31978     4.1328    1.45953           -0.146684  0.0406955   0.131816
 H              2.22366    4.72783    1.21711            -0.21167  0.0497027 -0.0146375
 H              3.10589    4.10741     1.4682           -0.254305  0.0664909  0.0313663
 H              3.97108    4.72037    1.19054           -0.100475 -0.0889707   -0.13968
 H             0.468243  -0.292649    2.02788            0.163972  -0.133023  0.0058093
 H              1.32061   0.315134    2.34498          -0.0571494  -0.235515  0.0216747
 H              2.19796  -0.271557     2.0892           -0.204944  0.0961839   0.160465
 H              3.09112   0.319406    2.34706             0.11322   0.194125 -0.0439361
 H              3.97386  -0.259213     2.0359            0.167175   0.243974   0.171562
 H             0.374416   0.817735    2.08336            -0.107868 -0.00697047    0.022319
 H              1.29946    1.38464    2.38589           0.0983616  -0.044361  0.0891543
 H              2.20637   0.867843    2.06638           -0.202637 -0.0539351  0.0411435
 H               3.0852     1.3963    2.37346          -0.0329946  0.0735714   0.143986
 H              4.01508    0.85499    2.03977          -0.0839088 -0.0548847   0.021208
 H             0.373004    1.93007    2.06946           0.0105017  0.0166966 -0.0193288
 H              1.29379    2.46242    2.39256            0.106014   0.122584   -0.14011
 H              2.20382      1.955     2.0782           -0.110483   0.165753    0.23868
 H              3.10042     2.4877    2.39981          0.00653749  -0.183966 -0.0810389
 H              3.99863    1.94005    2.07274           0.0419216  0.0555865  0.0129066
 H             0.399684    3.04723    2.08008            0.141578 -0.0693723 -0.0346782
 H              1.30877    3.56447    2.39323          -0.0310959  -0.115267   0.122005
 H              2.18582    3.02909    2.07311           -0.144199   -0.10684  0.0522462
 H               3.0927     3.5677    2.40416           -0.115138  0.0750869   0.124068
 H              4.00501    3.03744    2.08889           -0.204716  0.0675746  -0.064417
 H             0.427065    4.15774     2.1134          -0.0359508    0.26108  -0.180581
 H              1.35027    4.73577    2.38965            0.310114  -0.140093  -0.201557
 H              2.20692    4.11921    2.12356          0.00017815 -0.0964169 -0.0199894
 H              3.07296    4.73214    2.39954           0.0699154  0.0496784  -0.186998
 H              3.98222    4.14812    2.13772           -0.108559   0.152047  -0.093085
 H              0.41689   0.260725    2.98454          -0.0120184    0.16081   0.155784
 H              1.33796   -0.29272    3.23617            0.279733  0.0387922  -0.116044
 H              2.20346   0.309985    3.01508           -0.115557  -0.166967  0.0556989
 H               3.0652  -0.309514     3.2542           0.0239312  -0.278341  -0.050878
 H              3.99211   0.277942    2.96835           0.0157457  -0.260403 -0.0299605
 H              0.39894    1.36794    3.03195           0.0565392  -0.193285  -0.165226
 H              1.31208   0.823255    3.33223           -0.134071 -0.0391228  -0.175928
 H              2.19978    1.37551    3.01655           0.0370819   0.138749   0.194066
 H              3.10474   0.840251    3.31613            -0.122648 -0.00437055    0.186294
 H              3.99237    1.38666    3.00302           -0.014287 -0.0591913 -0.0319173
 H             0.392067    2.48788    3.03677            0.106304  0.0337128 -0.0220955
 H              1.28694    1.91954    3.32929           -0.108855 -0.0718778 -0.0583494
 H              2.19715    2.45429    3.01671           0.0127033 0.00144655  0.0525684
 H                3.094    1.92396    3.33843          0.00850115   0.171067   0.180229
 H              3.98572     2.4993    3.05964           -0.150563  0.0148745 -0.0390257
 H             0.404066    3.59445    3.04802            0.207293  0.0365579 -0.0429457
 H               1.3043    3.01488    3.33163            0.151446 -0.0936905  0.0729473
 H              2.18367    3.56113    3.04601            0.145251  -0.117476 -0.0950434
 H              3.07799    3.01274    3.34794          -0.0945551  -0.147937 -0.0722803
 H              3.98993    3.59683    3.07418          -0.00370398    0.101213  -0.0322878
 H             0.469751    4.74294    3.05205          -0.0825625  0.0589332   0.016106
 H              1.31982    4.12069    3.31646          -0.0505873 -0.0139402   0.114472
 H              2.20153    4.70065    3.04996            0.210638 -0.0290481 -0.0106789
 H              3.06849    4.08538    3.32825          -0.0208429 -0.0123821  -0.211912
 H              3.89424    4.77234    3.10194           -0.116523   0.114867  0.0847527
 H             0.426523   -0.37063    3.88283           -0.122292   0.126107  0.0125888
 H              1.32011   0.208135    4.24843            0.239339 -0.0963771  0.0382002
 H              2.19941  -0.334784    3.93617          -0.0119977   0.126085  -0.139391
 H              3.10176   0.223689    4.22158          -0.0286811 -0.0380066  0.0242798
 H              3.97884  -0.339239    3.87159            0.198066  -0.126685    0.13969
 H             0.414305   0.784563    3.96978             0.17755   0.303937   0.199196
 H              1.30424    1.33648    4.29382            0.127148 0.00560223  0.0181863
 H              2.21072   0.802504    3.97404           -0.109249 -0.0747274 -0.0518125
 H              3.10057     1.3449    4.31692          -0.0607737 -0.0385431  0.0136935
 H              3.98336   0.806727    3.95313             0.14735  -0.243553   0.238667
 H             0.378301    1.90171    3.99176            0.152203   0.139578  0.0442973
 H              1.30048    2.45538    4.28625          -0.0439335  0.0598836 -0.0261327
 H              2.19961    1.90156    3.96403          -0.0401166   0.253227  0.0621171
 H              3.09679    2.45327    4.29487             0.26343  -0.165676   0.124227
 H              4.01096    1.91599    3.96801           -0.257891  0.0256817 -0.0778631
 H              0.41388       3.03    3.97288           0.0411645 -0.0658171   0.123698
 H              1.31791    3.57412    4.26509           -0.224793   0.328817 -0.0131023
 H              2.19359    3.00912    3.98112            0.207993  -0.186384  -0.243171
 H              3.05897    3.57492    4.30057           0.0856686  0.0315055  0.0347037
 H               3.9857    3.05361    4.02554           0.0844187  -0.126538  0.0301608
 H             0.444532     4.1741    4.01512            0.192355  -0.288093  0.0307549
 H              1.47873    5.03803    3.83655            0.188394   0.215555  0.0202027
 H              2.19607    4.14792    3.99306          0.00822767  -0.162659   0.174747
 H              2.93719    5.04343     3.8052           -0.0601312 0.000378685   -0.113151
 H              3.93462    4.19189    4.02594           -0.112685   -0.37643 -0.0240151
