125

 H             0.784463  -0.634975   0.534795            0.107571  0.0312818  -0.128976
 H              1.34196   0.312325   0.454709           0.0229868 -0.0119841 -0.0703433
 H              2.15338  -0.537711   0.544137           -0.130121   0.152026 -0.0442137
 H              3.05996   0.287097   0.445688           -0.027776    -0.1808   0.205322
 H              3.63099  -0.639898   0.574874             -0.1961  -0.309567 -0.0360466
 H             0.421597   0.829848   0.111098          -0.0503536 -0.0931408  -0.246192
 H              1.31303    1.41382   0.469026           0.0509323 -0.0907885 -0.0430854
 H              2.21713    0.87665   0.160287            0.146434   -0.15044   0.083796
 H              3.09458    1.40349   0.465814          -0.0514167 -0.0594838 -0.0662378
 H              3.97653   0.848667   0.143738            0.180186 -0.0784331    0.23439
 H              0.40015    1.95836   0.178546           0.0796543    0.02581   0.102501
 H              1.31125    2.51467   0.489525           -0.139309  0.0252719  -0.120612
 H              2.22282    1.97551   0.146364            -0.26997  -0.215364    0.17734
 H              3.11066    2.50673   0.504781           -0.111435 -0.0987473   0.125941
 H              4.00954    1.94359   0.161013          -0.0639287 -0.0522527  -0.141166
 H             0.407235     3.0613   0.193327          -0.0166111 -0.0352769   0.304528
 H              1.30396    3.60426   0.512863            -0.16082   0.117135 -0.0247617
 H              2.22283    3.05116   0.166376           -0.111639   0.155312  0.0443662
 H              3.10844    3.61202   0.511069           0.0415314 -0.0154639  0.0132042
 H              3.99047    3.06081   0.167436          -0.0704198  0.0129345   0.218572
 H             0.390392    4.16621   0.223923           -0.104864  -0.225092   0.184536
 H              1.30757    4.70762   0.508026          -0.0947795   0.207976  0.0274487
 H              2.20927    4.14709   0.253161           0.0674203   0.136878   0.265131
 H              3.11021    4.70202   0.549007            0.122896 -0.0526849  0.0425756
 H              4.00101    4.18968   0.191778          -0.0147861  0.0669264   0.145075
 H             0.430736   0.293947    1.08664           -0.175749 -0.0426131   0.112518
 H              1.34947  -0.267459    1.39143          -0.0438378   0.145199 -0.0362806
 H              2.20271   0.348402    1.12588            0.044038  0.0519541 -0.0138554
 H              3.03543  -0.266375    1.39482           0.0618882  0.0653678  0.0172878
 H              3.98587   0.267832    1.10102            0.143453  -0.168439  0.0974158
 H             0.395607     1.3948    1.11193            0.125629  -0.176857  0.0154604
 H              1.30961   0.860671    1.40928           -0.169654   0.213011   0.150451
 H              2.20233    1.40642    1.10372            0.223506  -0.236254   0.189455
 H              3.09329   0.851121    1.40711          -0.0440129 -0.0903552  -0.120126
 H              3.99694    1.40652    1.09918           0.0867383   0.236856   0.104307
 H             0.417103    2.50191    1.12468          -0.0504508 -0.0357617  0.0806148
 H              1.30404    1.95139    1.42848           -0.0490939 -0.00416398  -0.0529401
 H              2.21102     2.4927    1.13128           -0.222448   0.291228  -0.258449
 H              3.08795    1.93946    1.44752            0.128402  -0.129375  -0.040395
 H              4.01075    2.49815    1.12362            0.133916   0.022268 -0.0431371
 H             0.403294    3.61945    1.15428          -0.0704493  -0.156823   0.248321
 H              1.30864    3.05199    1.45718           -0.103027  -0.175142  -0.202026
 H              2.20711    3.59022    1.15926            0.209477   0.137075  -0.040921
 H               3.1077    3.03468    1.44332          -0.0946878  -0.125637  -0.202729
 H              4.00985    3.62015    1.13909          -0.0557373   0.157939  -0.124483
 H             0.432511    4.74578    1.16787           0.0797861   0.137361  -0.142685
 H              1.31083    4.13799    1.45303          -0.0120842  -0.149758   0.282623
 H              2.18736    4.75293    1.21398            0.223601  -0.298749  -0.162358
 H              3.08436    4.11694    1.46637            0.165324    0.18158  0.0222126
 H              3.98082    4.74099    1.18973           -0.271809 0.00880623 -0.0906969
 H             0.429574  -0.259664    2.02778          -0.0930534   -0.10739  -0.212927
 H               1.3114   0.327636    2.35347            0.064076  -0.079795   0.148828
 H               2.1727   -0.27195     2.1033           -0.190223   0.168791   0.190954
 H               3.0911   0.297497    2.34031           0.0266389  0.0645608 -0.0303647
 H               3.9192  -0.318553    2.04934            0.037332 -0.0071085   0.181722
 H             0.394918   0.845432    2.06172            0.190477 -0.0894215  -0.194951
 H              1.30215    1.39805    2.37113          -0.0215478   0.144368   0.145028
 H              2.19992   0.857049    2.06792            0.146243   0.252307  -0.394537
 H              3.09644    1.39178    2.37869          -0.0368363  0.0923131 -0.0384329
 H              3.98094   0.845394    2.03807           0.0770891 0.00470629  -0.209302
 H              0.40198    1.95393      2.068            0.262891 -0.0221321   0.123334
 H               1.3065    2.48218     2.3995           0.0821086   0.332974 -0.0536137
 H              2.20233    1.93211    2.06988           -0.218045  0.0741948 -0.0780505
 H               3.1121    2.48547     2.3931           0.0541015  -0.167535  -0.330771
 H              3.99267    1.93737    2.05726           -0.139761  0.0420228  0.0992944
 H             0.378097    3.04653    2.08506          -0.0615928   0.117339 -0.0971227
 H              1.28749    3.57226    2.39179           0.0585735   0.151098  -0.146303
 H              2.20068    3.03966    2.09072           -0.121822 -0.0143052   0.144641
 H              3.10715    3.56718    2.39191             0.11433 -0.0270553    0.12022
 H              4.01621     3.0495    2.07934           -0.148171 -0.0649317   0.216066
 H             0.384025     4.1592    2.11691           -0.165398  -0.117566    0.25389
 H              1.33111    4.68441    2.38046           0.0387108 -0.0276219   0.105752
 H              2.20514    4.11851    2.11852           -0.147327  0.0691917 -0.0522667
 H              3.07018    4.72451    2.36954            0.137359   0.158602   0.185617
 H              3.97739    4.15005    2.10107            0.233971   0.335022  0.0606953
 H             0.383856   0.286547    2.99571           0.0230355  -0.158505  0.0791344
 H              1.29929  -0.310008     3.2389          -0.00590472    0.275818   0.0637901
 H              2.19389   0.281186    3.01668            0.291713  0.0257851 -0.0195824
 H              3.12076  -0.309565    3.25343           0.0311034 -0.0070605 -0.0421737
 H              4.00796   0.287383    2.97759          -0.0866657   0.098082   0.208833
 H             0.388759    1.37746    3.00758            0.116384   0.237637 -0.0384246
 H              1.27521   0.837565    3.31677           -0.180254 -0.0717962 -0.0211444
 H              2.18024    1.38861    3.00848          -0.0979158  -0.116581 -0.0728203
 H              3.09935   0.825713    3.28816          -0.00529308     0.16354   0.0962999
 H              4.00521    1.39942    3.00715           0.0693184 -0.0184827  -0.082708
 H             0.401669    2.48226    3.03631            0.273862  0.0754882 -0.0734916
 H              1.30175     1.9203    3.35088            0.0400883   -0.128873 -0.00229389
 H              2.20642    2.47194    3.01977            0.115601  -0.153478 -0.0101584
 H              3.09009    1.91707     3.3242          -0.0352333 -0.0866901  0.0250262
 H              4.00914    2.49702    3.02748           0.0437266  0.0464541  0.0346952
 H             0.380807    3.60425     3.0461            0.107008   0.063837  -0.168542
 H               1.3078    3.00164    3.33793           0.0784528 -0.0810703 -0.0221686
 H              2.20398    3.53366    3.02766            0.023777   0.180536  0.0448925
 H              3.10129    3.00923    3.35583            0.148056  0.0188528   0.345604
 H              3.98855    3.60746    3.05325            0.232054  -0.191283 -0.0409018
 H             0.480029    4.75828    3.07428          -0.0252247 -0.0250683   0.104348
 H              1.32031    4.08927     3.3187            0.173515 -0.0679606 -0.0386358
 H              2.19803    4.71725    3.08022          -0.0940311   0.198472  -0.223181
 H              3.07284     4.0911    3.31695           0.0542509  0.0877432 -0.0569351
 H               3.9172    4.72249    3.06916           -0.162097 -0.0977133  0.0504955
 H             0.430248  -0.326409    3.90186           0.0290094 -0.0224936   0.143373
 H              1.31911   0.238278    4.26206           -0.247752 -0.0537833 -0.0919647
 H              2.21493  -0.325578    3.90734            0.130962   0.106341  -0.140567
 H              3.09699   0.256924    4.22341           -0.188778    0.29476 -0.0388628
 H              3.99534   -0.30964    3.91437          -0.0740788 -0.0512243 0.00988003
 H             0.400918   0.802199     3.9696          -0.0779827  0.0411051 -0.0877691
 H              1.30242    1.35961    4.30974           -0.107211  0.0786277  0.0318621
 H               2.2062   0.805459    3.95434          -0.0239322  0.0207357  -0.223362
 H               3.1147    1.33114    4.28856          -0.0727601 -0.0875984  0.0542617
 H              4.00871   0.821948    3.94461          -0.0487356  -0.101794  0.0752014
 H             0.406679    1.93341    3.97544            0.253593 -0.0579753  0.0740198
 H              1.32764    2.46494    4.30203           0.0146286 -0.0882873   0.109675
 H              2.20096    1.91361    3.97233           -0.152727 -0.0684036  -0.265018
 H              3.08797    2.45817    4.30902           0.0285964 -0.0707479  -0.018644
 H              4.00944    1.94142    3.96969            0.0914546  -0.0636023 -0.00147723
 H             0.405552    3.04247    3.98441           -0.100498 -0.0524807  -0.124548
 H               1.3236    3.55687    4.28944          -0.0125572 -0.0579009 0.00636345
 H              2.19429    3.01235    3.97531          -0.00605433  -0.0276228  -0.0785783
 H               3.0709    3.57689    4.30167          -0.0145212  -0.143647  -0.282554
 H              3.99277    3.04532    4.00919           0.0750979  0.0515479 -0.0860841
 H             0.469718    4.19174     4.0111          -0.0948275  -0.151386 -0.0144587
 H              1.38749    4.99802    3.82136           -0.195537 -0.0542297  -0.226753
 H              2.17791      4.139    3.98351          -0.0479421  -0.135704  0.0875848
 H              2.97073    4.93035    3.94707            0.240532 -0.0699159 -0.0621151
 H              3.91419    4.18752    4.02649           -0.175431  0.0946131  -0.169499
