125

 H             0.781357  -0.634298   0.572589            0.110091   0.233988  -0.220201
 H              1.35886   0.307185   0.471109           0.0290126 -0.0461581  -0.111225
 H              2.07847  -0.567853    0.55373          -0.0257962  0.0748246 -0.0552382
 H              3.07376   0.331646    0.43592          -0.0838702  0.0424024  0.0338739
 H              3.65552  -0.601419   0.520253            0.169388 -0.0218906  0.0755732
 H             0.421099     0.8207    0.14376           0.0725885 -0.0178694 -0.0439815
 H              1.31598     1.4127   0.471073          -0.0706287  0.0116249 -0.0217834
 H               2.2086   0.880382   0.122248           -0.145925   0.229822  0.0759859
 H              3.10246    1.41855   0.469463          -0.0650288 -0.0657527 -0.0575618
 H              4.00595   0.862596   0.128929           -0.174355 -0.0558381   0.124863
 H             0.404339    1.93643   0.176707            0.116821   0.108599   0.158989
 H              1.30963    2.50834   0.503277          -0.0652336 -0.0122843  -0.160333
 H              2.20922    1.95712   0.139188            0.123999   0.098477 -0.0334735
 H              3.09465    2.50112   0.476691           -0.095197   0.101514  -0.204728
 H              3.99395    1.95623   0.129712            0.191168   0.160271   0.137664
 H              0.42141    3.03975   0.176829          -0.00467297   0.0689111   -0.241728
 H               1.2915    3.60594   0.517356            0.219935  -0.120567  -0.120823
 H               2.2096    3.06362   0.174397           0.0251367  -0.093316   -0.11625
 H              3.09005     3.6106   0.489874          -0.0467388  -0.111345   0.189637
 H              3.96904    3.06762   0.155884            0.092372 -0.0878106  0.0181955
 H             0.412166    4.19211   0.220718            -0.33062  -0.141041 0.00295819
 H              1.31957    4.75813   0.543148          -0.0107143  0.0264124 -0.0545975
 H              2.19503    4.18958   0.246485          -0.0177207  0.0620589 -0.0247337
 H              3.08825    4.73368   0.546529           -0.276735    0.18221  0.0185987
 H              3.98519    4.17992   0.185513           0.0650836    -0.3429 -0.0360517
 H             0.423156   0.279093    1.10472          -0.0530122  -0.260327  0.0851045
 H              1.35714  -0.278211    1.42863           -0.153449  -0.136346   0.162168
 H               2.2217   0.325551    1.13405            -0.30661  0.0357381  -0.185495
 H              3.07866  -0.265538    1.41542          -0.0691034 -0.0352223 -0.0143362
 H              3.97763   0.304289    1.09233            0.186504  0.0711289 -0.0421783
 H              0.41535    1.39921    1.10608          -0.0831865    0.03156  -0.176946
 H              1.30099   0.846342    1.43328           -0.262921   0.104813  0.0734597
 H              2.19924     1.4091    1.11016           0.0316729  0.0348882  -0.364135
 H              3.09694   0.871612    1.42538          -0.0373269  -0.203085  -0.161919
 H              4.01267    1.40588    1.10394          -0.0851785 -0.0397091   0.222933
 H             0.416852    2.49158    1.12709          -0.0680902   -0.18989   0.183137
 H               1.3188    1.94176    1.44168            0.162602  -0.183794  -0.225909
 H              2.20111    2.49302    1.11978            -0.329549 -0.00515023   0.0588827
 H               3.1096    1.96556    1.42934          -0.0516961  0.0770227 0.00913552
 H              4.00978    2.49489    1.09737          -0.0191567   0.136415   0.115684
 H             0.389813    3.60117    1.15318          -0.0760957 0.00561688  0.0325814
 H              1.31905    3.02831    1.44524           0.0563233 -0.0609445  -0.190558
 H              2.19836    3.57053    1.14579           -0.0317221 -0.00819373    -0.10502
 H              3.11374    3.04247     1.4299           0.0316548  0.0920404 -0.0135652
 H              4.01264    3.59754    1.13027          -0.0619425  0.0950322  0.0287573
 H             0.418616    4.75313    1.19447             0.10488   -0.12969 0.00645992
 H              1.30152    4.12066    1.45708           -0.207647  0.0824867  -0.027537
 H              2.22059     4.7016    1.22067             0.205791 -0.00757388   0.0347233
 H               3.0962    4.11658    1.47584           0.0813559 -0.0547764 -0.0611269
 H              4.00095    4.69691    1.20182            0.297575  0.0174039  -0.139111
 H             0.420063  -0.285481    2.05266            0.0947322 -0.00919153   0.0164818
 H              1.30053   0.290658    2.36316          -0.00727361    0.135275   0.0722233
 H               2.2212  -0.269977    2.07058           0.0197185   0.228442  -0.181432
 H              3.09205   0.302809    2.34359            -0.20317  -0.167132   0.217655
 H              3.97051  -0.260057    2.04831           -0.0398593     0.15853 6.36224e-05
 H             0.397586   0.835618    2.06453           0.0682132 -0.0139754  0.0288681
 H              1.32176    1.40851    2.38482           0.0409899 -0.0103157  0.0637974
 H              2.19262   0.855533    2.06299           0.0631228   -0.28235 -0.0624801
 H              3.10014    1.40734    2.38252            0.019967  0.0417548  -0.180521
 H              4.01099   0.854061    2.05777           0.0924994 -0.0198426   0.187724
 H             0.417643     1.9402    2.06471            0.206887  0.0743624  0.0301866
 H              1.31254    2.48043    2.39285           0.0127459  0.0386483  0.0766611
 H              2.20649    1.95176    2.06614          -0.00792048  -0.0942829   -0.177298
 H              3.08977    2.49181    2.39117          0.00201266  0.0736999   0.166214
 H              3.99166    1.95309     2.0683            0.166257  0.0557975   0.100225
 H             0.406115    3.04467    2.08679          -0.0843791 -0.0742235  0.0637557
 H              1.29851    3.57759    2.40961          -0.0845697  0.0421987   0.055852
 H              2.20929    3.03066    2.08278           -0.273083 -0.0249938   0.160202
 H               3.1022    3.56801    2.40068           -0.252158  -0.138326   0.137462
 H              4.00697    3.03072    2.07713            0.129195  -0.137952   0.184258
 H             0.404954    4.16859    2.10619          -0.0656901   0.185318 -0.0692823
 H              1.32336    4.69194    2.36317          -0.0609558  0.0948407  -0.161904
 H              2.20422    4.10952    2.10858             0.15153  0.0767665  0.0066992
 H              3.06681    4.69806    2.38537            0.250064   0.105539 -0.0519767
 H              3.97295    4.13991    2.12874          -0.0593472   0.324344  -0.117589
 H              0.40058    0.29145    3.00575           -0.142117  -0.208198  -0.183146
 H              1.30357  -0.315829    3.26581          -0.00202116  -0.0657205  -0.0657893
 H              2.19459   0.298377    3.00021            0.226894   0.130302     0.2891
 H               3.0993  -0.292305    3.22187          -0.0281608  0.0471721  0.0408554
 H              4.00125   0.279355    2.97532           -0.150748   0.138257   0.076115
 H             0.398337    1.40205    3.00634          -0.0651626 -0.0534167  -0.162977
 H              1.29105   0.842262    3.32173           -0.205491 -0.0489786   0.132488
 H              2.19089    1.38329    3.00256            0.101097  -0.271025  0.0168852
 H              3.09967   0.829183    3.30943           -0.303101   0.206598 -0.0625108
 H              4.01498    1.37634    3.03094          -0.0958452 0.00420009 -0.0902002
 H             0.421868    2.50464    3.02623          -0.0818758   0.108052   0.128759
 H              1.30457    1.91629    3.34066           0.0649527 -0.0737302  -0.198591
 H               2.2037    2.45464     3.0302           0.0108663   0.217637   0.181737
 H              3.08283    1.92212    3.35499           -0.278996  -0.159522   0.144138
 H              3.98976    2.47622    3.02551           0.0993199  -0.271791   0.171993
 H             0.383927    3.60923    3.04181            0.161364 -0.0130055   0.209951
 H              1.32009    3.01456    3.34052           -0.141754   0.212621   0.129513
 H              2.20967    3.55889    3.03461           0.0181172 -0.0824983  0.0261089
 H               3.1005    3.00366     3.3507            0.0530011 -0.00148247  -0.0551056
 H              3.98815    3.58413    3.04978           -0.162787   0.125078  0.0897651
 H             0.464568    4.75481    3.05552            0.252566   0.121314 -0.0780163
 H              1.31903    4.09543    3.31623          -0.00256224 -0.00722836    0.117413
 H              2.18785    4.69734    3.03483          -0.0765179   0.149185  0.0307307
 H              3.08027    4.08315    3.32027           -0.159736 -0.0798817 -0.0164604
 H              3.90978    4.76148    3.09368          -0.00957882    0.122245  -0.0963683
 H             0.385747  -0.331988    3.89585             0.11824  0.0685284 -0.0396358
 H              1.30959    0.23945    4.22892           0.0390542 -0.0668395 -0.0553814
 H              2.21027  -0.316405    3.89721            0.195661 -0.0690607   0.104563
 H              3.08723   0.224677    4.23558           0.0113224   -0.27601  0.0453256
 H              3.98414  -0.349766    3.87644            0.118084   0.126185  -0.199142
 H             0.398887   0.820688     3.9665            0.134087  0.0296469   0.233835
 H              1.29012    1.35938      4.302           0.0288186  0.0535551   0.121578
 H              2.18383   0.816449    3.94288          0.00844238   0.189547  -0.106002
 H              3.08949    1.34855    4.29819           0.0958145  -0.182008   0.140187
 H              3.98736   0.784323    3.96745          0.00330895 -0.0652493   0.261472
 H             0.390223    1.93704    3.94699            0.102303 -0.0442027  -0.157921
 H              1.26648    2.48336    4.30612          -0.0465763  -0.197445 -0.0312544
 H              2.17636    1.90109    3.97303          -0.0780337  0.0363121   0.204743
 H              3.06338    2.46973     4.3188            0.254613 -0.0624382 -0.0215837
 H              3.99127    1.93599     3.9924             0.13855 -0.0749328  -0.149067
 H             0.418628    3.06047    3.99332            0.242682  0.0708192  -0.154278
 H              1.33435    3.60145     4.3179            0.271859 -0.0414132  -0.276018
 H              2.19206    2.98855    3.97306          -0.0120578 -0.0464274  -0.164119
 H              3.06133    3.57469    4.31544           0.0835345   0.135823 -0.0400853
 H              3.98105    3.02045    4.01808          -0.0265562  0.0401105   0.135125
 H             0.432456    4.16879    4.00133            0.119587  -0.184343   0.216301
 H              1.44315    4.94861    3.92204           -0.123757  0.0726223   -0.18058
 H              2.20675     4.1388    3.98962           -0.140975 -0.0931463  0.0820778
 H              2.97037    5.01885    3.80958             0.016771   0.0798921 0.000172967
 H              3.93698    4.16661     3.9977            0.119941  -0.162427  0.0486303
