125

 H             0.782902  -0.630485   0.511138            0.102003  0.0951137   0.117263
 H              1.33803   0.316401   0.474291           -0.131158 -0.0643168  -0.107136
 H              2.06406   -0.56586   0.633575           0.0356191 0.00262775  0.0823976
 H              3.03283   0.290691   0.460438          -0.00251189   0.0979799   -0.198826
 H              3.59089  -0.669159   0.555406           0.0782456 -0.0510408  -0.102546
 H             0.425933   0.815197   0.127736            0.222867  0.0593334  -0.150879
 H              1.31987    1.42083   0.462352           -0.293853   0.192783   0.124082
 H              2.21954   0.879568   0.134235           0.0465987      0.157 -0.0799495
 H              3.09659    1.39989   0.475827            -0.32026   -0.10967  -0.266031
 H              3.96029   0.824367   0.140814           0.0817413 -0.0117937   0.121567
 H             0.416118    1.93603   0.122804          0.00783333 -0.0181332  0.0992829
 H              1.32679      2.509   0.480351            0.039938  -0.103785    -0.0654
 H              2.21573    1.96841   0.159083            0.103457  -0.268495 -0.0979767
 H              3.09928    2.50115   0.485849           0.0879441  -0.200661 -0.0639027
 H              4.01066    1.93859   0.154791            0.250595 -0.0509006  0.0221633
 H             0.455536    3.07682   0.132291           0.0739306 -0.0214497 -0.0896562
 H              1.31661    3.60752   0.519802           -0.102565  -0.229182   0.218987
 H              2.23008    3.08535   0.182934           0.0440162  0.0269594   0.265734
 H              3.10016    3.63735   0.510548           -0.121647 -0.0887715  -0.114046
 H              4.01327    3.09976   0.178583           0.0742725  0.0295379 -0.0378884
 H             0.426943    4.17903   0.222414           -0.204522  -0.080598   0.186515
 H              1.30449    4.73141   0.546211            0.068878  -0.145844  -0.238328
 H              2.20377    4.18729   0.225837            0.264264  -0.143982  -0.112583
 H              3.06602    4.74341   0.560803           -0.242068  0.0324284   0.246332
 H              3.97809    4.21864   0.218156           -0.0464686    -0.12142 -0.00592499
 H               0.3998   0.288456    1.09468            0.184912   0.148113 -0.0385705
 H              1.34547  -0.265098    1.39202          -0.0308265 -0.0452687  -0.301009
 H              2.19611   0.354148    1.13001            -0.21248   0.318373   -0.34656
 H              3.04175  -0.256497    1.40966            0.224648  -0.122753   0.138907
 H              3.94503   0.278999    1.08701           -0.115548 -0.0958348   0.102364
 H             0.394777    1.39064    1.09803            -0.30911 -0.0429132    0.20269
 H              1.28664   0.871856    1.42256            -0.20951   0.268985 -0.0510639
 H              2.19117    1.42118    1.10358           -0.296145  -0.019095  -0.118819
 H              3.08406   0.855245     1.4306            0.121228   -0.10155 -0.0614136
 H              3.98676    1.38228    1.11206            0.105214  -0.034151  0.0717051
 H             0.420277    2.48872      1.094           0.0807431   0.088429  -0.336504
 H              1.29865    1.94636    1.43018           0.0437091 -0.0709629  -0.105903
 H              2.21898     2.5077    1.12931            0.243294  -0.115563   -0.11413
 H              3.08972    1.94507    1.44049          -0.00221905   0.0138444   -0.106389
 H              3.99201    2.49071    1.12195           -0.108607  0.0858767   0.052885
 H             0.371358    3.62186    1.13889          -0.0254759  -0.147394  0.0272101
 H              1.30788    3.04506     1.4359           0.0685248 -0.0406356 -0.0895835
 H              2.20882    3.60918    1.15503           -0.188097 0.00615903   0.106842
 H              3.10017    3.03803    1.44745          -0.0454675    0.10314   -0.16277
 H              4.00461    3.62754    1.15146            -0.13514   0.013178  0.0443002
 H             0.415364     4.7563    1.19502            0.142901 -0.0147181  0.0759072
 H              1.29227     4.1307    1.47022            0.102756  0.0651794   0.080658
 H              2.19725    4.71406     1.2342           0.0445638 -0.0118892   0.154777
 H              3.08346    4.14259    1.47142           0.0577702   0.156363  -0.205356
 H              3.97883    4.74178    1.20428            0.118459   -0.13502 -0.0713842
 H             0.418927  -0.259002       2.06           0.0479159   0.091882   0.052834
 H              1.29214   0.315486    2.34806          -0.0504784 -0.0279087  -0.195186
 H              2.15625  -0.280813    2.08175           -0.183453  -0.160504 0.00970134
 H                3.094    0.29785     2.3601          -0.0758886  -0.134627   0.270844
 H              3.98005  -0.260793    2.03467             0.182621 -0.00832462    0.092084
 H             0.389347   0.839302    2.05515            0.240098   0.110277   0.159874
 H              1.29586    1.39926    2.38389           -0.240911   0.259464  -0.162582
 H              2.19742   0.854736    2.06382           -0.112941  0.0399961   0.103528
 H              3.10458     1.3958    2.36481          -0.0649811  -0.205388  -0.201012
 H               3.9879   0.843507    2.05439           0.0405349 0.00393055  0.0547442
 H             0.400739    1.92547    2.05919           0.0233581  -0.185494   0.193136
 H              1.29421    2.47654    2.38791            0.186726   -0.21201 -0.0190602
 H              2.19447    1.93714    2.06685          -0.0149282  -0.061535  0.0198283
 H               3.0964    2.48201     2.3894           0.0030305   0.165862  0.0812577
 H              4.00859    1.94078    2.06914              0.1151  0.0711804   0.154439
 H              0.40897    3.03162    2.06879           0.0864168  -0.102028 -0.0312662
 H               1.3103     3.5585    2.39229            0.211864  0.0113288  0.0767227
 H              2.19859     3.0089    2.08576           -0.151899  -0.237407  0.0290001
 H              3.09829    3.56718    2.38299          -0.0640784  0.0585934  0.0200388
 H              4.01085    3.02857    2.09923          -0.0790982  0.0706889 -0.0767915
 H             0.422661    4.15006    2.11457           -0.100276  -0.206821   0.233488
 H              1.33341    4.71313     2.3816          -0.0609895   0.136943 -0.0100532
 H              2.19837    4.11517    2.12524           0.0231591  0.0774939  -0.100568
 H              3.05352    4.71593     2.3706           -0.126903  0.0852318   0.276509
 H              3.99967    4.14467    2.12128          -0.00597707    -0.19499   0.0698385
 H             0.375666   0.278672    3.00894            0.156043 -0.0130062  -0.220558
 H              1.32881  -0.293691    3.24398             0.152019   0.0882061 -0.00723343
 H              2.21133   0.290155    3.00213             0.0927315 -0.000317887   -0.0277592
 H              3.12423  -0.320066    3.25617           -0.157142 -0.0191897 0.00676191
 H               4.0375   0.277416    2.98356           -0.101784 0.00997752   -0.33431
 H             0.385785    1.38339    3.01166          -0.0392595 0.00511584  -0.110435
 H              1.30339   0.820418    3.30522             0.345539    0.088017 -0.00664282
 H              2.19966    1.37469    3.00118          0.000305432   0.0313265   0.0500084
 H              3.11301   0.801562    3.30662           0.0243814   0.139732 -0.0262424
 H              4.01441    1.38212    3.02187           -0.120547   0.141836 0.00511939
 H             0.387635    2.47874    3.00876             0.037341    0.188475 -0.00454803
 H              1.29189    1.92573    3.34972           0.0160403  -0.158828   0.220509
 H              2.20414    2.46479    3.03071           0.0800164  0.0210582  -0.181622
 H               3.0855    1.91968    3.32111          -0.0267474 -0.0312085  0.0540619
 H              3.98888    2.48613     3.0367           0.0605134  -0.202801   -0.13573
 H             0.433658    3.56932    3.02252              0.0835   0.218812   0.180507
 H              1.29758    2.99986    3.34499          -0.0969319  0.0632972  0.0489936
 H              2.20677    3.53755    3.02532                0.22  0.0177004  0.0332111
 H              3.09339    3.00995    3.34362           -0.243886   0.160093   0.054802
 H              4.01168    3.58082    3.05967          -0.0681348  0.0950391  0.0148731
 H              0.48242    4.71407    3.06368          -0.0363316   0.030356 0.00137763
 H              1.32404    4.08443     3.3257          -0.0673357   0.112604 -0.0161522
 H              2.19271    4.70597    3.04962           0.0747573   0.072583  0.0832664
 H              3.07701    4.08632    3.31043          -0.0591703  -0.169183  -0.179974
 H              3.91606    4.73023    3.06621           0.0974576  -0.127975   0.243413
 H             0.450431  -0.313974    3.91771            0.083145 -0.0172138   0.180684
 H              1.33745   0.261832    4.24055           -0.0977498 -0.00462461  -0.0233056
 H              2.23678  -0.303045    3.90736           -0.141394  -0.168388    0.10415
 H              3.10032   0.240136     4.2491           0.0630214   0.118912  0.0380709
 H              4.00899  -0.304805    3.92637          -0.0521153  0.0856439  0.0303136
 H             0.393444   0.807025    3.94823           -0.115641   0.267689 -0.0825291
 H              1.31152     1.3507    4.27782           0.0981005   0.123055   0.247663
 H              2.22439   0.836734    3.93223           -0.103145  -0.113797    0.12194
 H              3.09953    1.35606    4.26886           -0.016464 -0.0954964 -0.0887535
 H              3.99918   0.814272    3.97706          -0.0251804   0.153274  0.0271353
 H             0.404625    1.91894    3.98886          -0.0391791  -0.110873  -0.109352
 H              1.32909     2.4654     4.3058             0.051561   0.0267241 -0.00937646
 H              2.21096    1.91268    3.97183          -0.0503957  -0.138445  0.0573474
 H              3.09068     2.4662    4.30092           -0.125916 -0.0848328  0.0281473
 H              4.00508    1.92645    3.97226          0.00643354   0.283366  -0.317607
 H             0.402948     3.0184    4.00204            0.244817 -0.0390784   0.135836
 H              1.31231    3.56455     4.3038           -0.194433 -0.0231551  0.0138474
 H              2.19049    3.01126    3.97272            0.075685  0.0390992  0.0590845
 H               3.0551    3.59472    4.29031            0.180823   0.100395   0.156881
 H              3.97175    3.06024    4.01036           0.0834807  -0.117712  0.0319087
 H              0.45333    4.16954    4.01332          -0.00369536  -0.0835341   -0.109539
 H              1.41629    5.02483     3.8059           -0.164887  -0.160534 -0.0710981
 H              2.18028    4.13688    3.96957           0.0388455   0.118772  -0.185801
 H              2.99202    4.94967    3.92404          -0.00223063     0.24804  -0.0190736
 H              3.94464    4.17798    4.02516          -0.0221286   0.131548   0.234341
