125

 H            0.0108086  0.0107839  0.0108382            0.116941   0.116808   0.117094
 H              1.10859  0.0064659 0.00624564           0.0221352   0.130983    0.12974
 H              2.19985  0.0544421  0.0546611          -0.00102833    0.203434    0.205196
 H              3.29115 0.00644522 0.00626032          -0.0238205   0.131047   0.129981
 H              4.38896  0.0107655  0.0108077           -0.118505   0.117006   0.117238
 H           0.00638501    1.10857 0.00626984            0.130436   0.022006   0.129787
 H               1.1084    1.10851  0.0682134          -0.0198344 -0.0190229  -0.266381
 H               2.2006    1.13593   0.117675          0.00527737   0.178965  0.0826273
 H              3.29276    1.10848  0.0683118            0.027968 -0.0187402  -0.267553
 H              4.39447    1.10857 0.00653942           -0.124839  0.0223707    0.13062
 H             0.054539    2.19982  0.0546492             0.204143 -0.00122786    0.205015
 H              1.13604    2.20072   0.117647            0.179932 0.00629244  0.0823715
 H              2.19938    2.19926  0.0774466          -0.00456184 -0.00542565   0.0944644
 H              3.26274    2.20071   0.117482           -0.190207 0.00626685  0.0807343
 H              4.34442    2.19982  0.0544882            -0.211723 -0.00122092    0.202934
 H           0.00636676    3.29113 0.00628029            0.130542 -0.0240182    0.13004
 H              1.10837    3.29287  0.0683532          -0.0194692  0.0287344  -0.267633
 H               2.2006    3.26262   0.117453          0.00529595  -0.191174  0.0804716
 H              3.29279    3.29289  0.0684627           0.0276399  0.0284159   -0.26874
 H              4.39449    3.29112 0.00654765           -0.124925 -0.0243692   0.130861
 H            0.0107849    4.38894  0.0108038            0.117169  -0.118675   0.117278
 H               1.1086    4.39455 0.00656129           0.0225597  -0.124309   0.130692
 H              2.19985    4.34432  0.0544778          -0.00103525   -0.212433    0.202773
 H              3.29115    4.39457 0.00657136          -0.0242513  -0.124403   0.130918
 H              4.38898    4.38896  0.0107746           -0.118739  -0.118863   0.117425
 H           0.00634049 0.00644603    1.10862            0.130355   0.130959  0.0222867
 H               1.1084  0.0675194    1.10828          -0.0194553   -0.27161 -0.0203535
 H               2.2006   0.118381    1.13617          0.00526432  0.0885314   0.181226
 H              3.29276  0.0677214    1.10828           0.0276437  -0.272053 -0.0198793
 H              4.39451 0.00667675    1.10861           -0.124747   0.131555  0.0225956
 H            0.0678567    1.10851    1.10828           -0.269042 -0.0188127 -0.0205394
 H              1.14582     1.1454    1.14626           0.0976364  0.0942796   0.101082
 H              2.19766    1.16035    1.15948          -0.0172814  0.0521336  0.0453822
 H              3.24994    1.14537     1.1461           -0.130796  0.0932565  0.0991433
 H               4.3285    1.10848     1.1083            0.243327  -0.020386   -0.02178
 H             0.117995    2.20072    1.13616           0.0852748 0.00629988   0.181042
 H              1.15989     2.1972    1.15947           0.0485907 -0.0206467   0.045291
 H              2.20257    2.20306    1.14581           0.0191097  0.0227421 -0.0188636
 H               3.2449    2.19721    1.15949           -0.011004 -0.0205807  0.0454164
 H              4.28609    2.20072    1.13607          -0.0505516 0.00627709   0.178916
 H              0.06808    3.29287    1.10828           -0.269693  0.0285977 -0.0200099
 H              1.14577    3.24954     1.1461           0.0962631  -0.133894  0.0989483
 H              2.19765    3.24536    1.15948           -0.0173539 -0.00740683   0.0453195
 H              3.24998    3.24959    1.14596           -0.129526  -0.132708  0.0970962
 H              4.32826     3.2929    1.10829            0.243889  0.0301217 -0.0212707
 H           0.00662135    4.39458    1.10862            0.131105  -0.124252  0.0226694
 H              1.10837    4.32813    1.10829          -0.0212795   0.240889 -0.0219004
 H              2.20061    4.28648    1.13606          0.00530309 -0.0472142   0.178761
 H              3.29279    4.32794     1.1083           0.0294982   0.241459 -0.0214277
 H              4.39424    4.39434    1.10861           -0.125481    -0.1249  0.0229828
 H            0.0545614  0.0544438    2.19989              0.204483     0.203532 -0.000792229
 H              1.13605   0.118427    2.20047            0.180252  0.0888925 0.00415439
 H              2.19937  0.0767341    2.19949          -0.00460101   0.0878625 -0.00371952
 H              3.26273   0.118141    2.20051           -0.190549  0.0863377 0.00443885
 H               4.3444  0.0543266    2.19987             -0.212048     0.201742 -0.000877017
 H             0.118046    1.13592    2.20047            0.085702   0.179029 0.00415186
 H              1.15991    1.16038    2.19813           0.0487181  0.0523734 -0.0138099
 H              2.20257    1.14492     2.2021           0.0190963 -0.0267411  0.0156929
 H              3.24488    1.16027    2.19801          -0.0111598  0.0515205   -0.01467
 H              4.28605    1.13587    2.20052          -0.0509995   0.177285  0.0045287
 H            0.0771297    2.19925    2.19949             0.091526 -0.00552242 -0.00372374
 H              1.14542    2.20308     2.2021          -0.0223691  0.0229195  0.0156797
 H              2.19741     2.1969    2.19781          -0.0247168 -0.0295516 -0.0208368
 H              3.24952    2.20307    2.20224          -0.0220897   0.022872  0.0166113
 H              4.31884    2.19925    2.19945            -0.128848 -0.00549532 -0.00404701
 H             0.117724    3.26261     2.2005            0.082805  -0.191403 0.00443114
 H               1.1598    3.24538    2.19801            0.0478637 -0.00728895  -0.0146495
 H              2.20258    3.24902    2.20223           0.0192065 -0.0264142  0.0165939
 H              3.24502    3.24547     2.1979           -0.0100608 -0.00650995  -0.0154343
 H              4.28639    3.26266    2.20055          -0.0479149  -0.189641 0.00477212
 H             0.054414    4.34431    2.19987              0.202294     -0.21263 -0.000874485
 H              1.13599    4.28649    2.20052             0.17811 -0.0472372 0.00452098
 H              2.19937    4.31844    2.19945          -0.00461621   -0.132487 -0.00404774
 H              3.26278    4.28676    2.20055           -0.188499 -0.0447927 0.00476948
 H              4.34454    4.34443    2.19986             -0.209931    -0.210818 -0.000945842
 H           0.00633037 0.00644278    3.29118            0.130432   0.131071 -0.0235871
 H              1.10838  0.0676483    3.29263           -0.019219  -0.272224  0.0267779
 H              2.20061    0.11819    3.26284          0.00530191  0.0867208  -0.189576
 H              3.29278   0.067857    3.29269           0.0274422  -0.272742  0.0267481
 H              4.39453 0.00667667    3.29117           -0.124803   0.131696 -0.0240342
 H            0.0680062     1.1085    3.29263            -0.26951 -0.0185384  0.0269732
 H              1.14578    1.14534    3.25037           0.0966522  0.0931134  -0.127612
 H              2.19764     1.1603    3.24445          -0.0173849   0.051783 -0.0145398
 H              3.24997     1.1453     3.2503           -0.129938  0.0919869  -0.127252
 H              4.32833    1.10847     3.2927              0.2437 -0.0200626  0.0288088
 H             0.117778    2.20073    3.26285           0.0832595 0.00639703  -0.189392
 H              1.15982    2.19716    3.24446           0.0480175 -0.0209385 -0.0144731
 H              2.20258     2.2031    3.24992            0.019217  0.0230702 -0.0186163
 H                3.245    2.19717    3.24469          -0.0101952 -0.0209149 -0.0127004
 H              4.28635    2.20073    3.26285          -0.0483448 0.00639422   -0.18801
 H            0.0682397    3.29291    3.29269           -0.270237  0.0284531  0.0268763
 H              1.14572    3.24954    3.25031           0.0951724  -0.133202  -0.127003
 H              2.19763    3.24549     3.2447           -0.0174905 -0.00637149  -0.0126366
 H                 3.25    3.24958    3.25025           -0.128621  -0.131989  -0.126586
 H              4.32807    3.29293    3.29276            0.244285  0.0299678  0.0286753
 H           0.00661714    4.39459    3.29117            0.131214  -0.124279 -0.0241071
 H              1.10836    4.32793    3.29271          -0.0210145   0.241127  0.0289242
 H              2.20061    4.28676    3.26285          0.00535612 -0.0447973  -0.187849
 H              3.29282    4.32773    3.29276           0.0293018   0.241705  0.0288406
 H              4.39425    4.39435    3.29115           -0.125548  -0.124928 -0.0245397
 H            0.0107901  0.0107632    4.38898            0.117082   0.116938  -0.118302
 H              1.10859 0.00666825    4.39442           0.0224172    0.13157  -0.125342
 H              2.19985  0.0543256     4.3445          -0.00103422    0.201816   -0.211335
 H              3.29115   0.006663    4.39446          -0.0241275    0.13167  -0.125276
 H              4.38897  0.0107432    4.38899           -0.118679    0.11716  -0.118576
 H           0.00658007    1.10857    4.39439            0.130977  0.0222774  -0.125389
 H              1.10839    1.10851    4.32889          -0.0210212 -0.0201424   0.245854
 H              2.20061    1.13586    4.28567          0.00531602   0.177319 -0.0541393
 H              3.29279    1.10848    4.32859           0.0293116 -0.0199136   0.245747
 H              4.39428    1.10857     4.3942           -0.125331  0.0226741  -0.125805
 H            0.0544322    2.19982    4.34451            0.202591 -0.0012512  -0.211146
 H              1.13599    2.20074     4.2857            0.178372 0.00641314 -0.0539089
 H              2.19936    2.19924    4.31915          -0.00466411 -0.00560027   -0.125927
 H              3.26277    2.20073    4.28609           -0.188812  0.0064099 -0.0505249
 H              4.34452    2.19982    4.34459            -0.210238 -0.00125236   -0.209623
 H           0.00657609    3.29112    4.39443            0.131119 -0.0243426  -0.125344
 H              1.10836    3.29291    4.32856          -0.0207025  0.0301344   0.245872
 H              2.20061    3.26264    4.28612          0.00535248  -0.189864 -0.0502962
 H              3.29283    3.29294    4.32827           0.0290444  0.0298917   0.245821
 H              4.39429    3.29111    4.39423           -0.125438 -0.0247362  -0.125792
 H            0.0107649    4.38895    4.38899            0.117339  -0.118865  -0.118616
 H               1.1086    4.39437    4.39417           0.0228816  -0.124757  -0.125888
 H              2.19985    4.34441     4.3446          -0.00104754   -0.211014    -0.20945
 H              3.29114    4.39437     4.3942          -0.0246064  -0.124868  -0.125851
 H              4.38899    4.38897    4.38901           -0.118949  -0.119085  -0.118878
