125

 H             0.776626  -0.660387   0.563956           0.0298451  0.0974902  0.0887607
 H               1.3435   0.283265    0.47691          -0.0996574  -0.119599 -0.0694658
 H              2.13502  -0.551331   0.559946           -0.010835  -0.251119 -0.0299757
 H              3.07956   0.299908   0.436276          -0.0553424 -0.0827692  -0.304692
 H               3.6921  -0.582159   0.536343          -0.0148095    0.04815  -0.218245
 H             0.400743   0.828848   0.165282          -0.0219377  -0.115284  -0.123921
 H              1.32366    1.40374   0.474118           -0.260976 0.00122496     0.1257
 H              2.20404    0.87045   0.149327            0.238205 -0.0514121  -0.244333
 H               3.0906    1.40221   0.474028           0.0272888   0.196494  0.0683331
 H              3.98121   0.836106   0.111882          -0.0305026  -0.163985  -0.114391
 H             0.433481    1.94904   0.133926            0.238326  -0.336534 -0.0414692
 H               1.2991    2.51096   0.486051           0.0423459 -0.0117215  0.0950055
 H              2.20703    1.97502   0.133873            0.0500802   -0.222052 -0.00666698
 H              3.07891    2.51591   0.451567            0.226993 -0.0685029 -0.0196925
 H              3.99279    1.95523   0.138436            0.145612  -0.188675  -0.170392
 H             0.416387    3.08151   0.178308            0.127933  0.0817738  -0.082058
 H              1.29871    3.61768   0.512126           -0.118193 -0.0670966  -0.159108
 H              2.18001    3.07566   0.168909          -0.0295583  0.0489924  0.0771186
 H              3.07098    3.60163   0.507548           -0.117846  0.0691278  0.0819519
 H              4.00309    3.06413   0.185793           -0.181282 -0.0571381   0.184199
 H             0.396316    4.22107    0.22057          -0.00379578  -0.0407063    0.153894
 H              1.33344     4.7375   0.522855          -0.00758331     0.10215   0.0952189
 H              2.21722     4.1987   0.196707           0.0726009  -0.285559  -0.150268
 H              3.08134    4.74058   0.543128          -0.0690974  0.0028634 -0.0688041
 H              3.97971    4.17462   0.193128           -0.179883 -0.0667993 -0.0325179
 H               0.4265   0.251771    1.11298            0.246536   0.176931  0.0626127
 H              1.36611   -0.28395    1.42816          -0.0514091 0.00521578 -0.0302214
 H              2.19932   0.358967    1.11755          -0.0279262   0.127226  -0.143788
 H              3.05937  -0.250943     1.3891          -0.00888512   0.0981933  -0.0600573
 H              3.98295   0.305641    1.10496            -0.34607 -0.0870181   0.216426
 H             0.419059     1.3926    1.11489             0.21877  0.0101659  -0.099151
 H              1.30577   0.853345    1.42484            0.157644  -0.305583 -0.0945155
 H              2.19664    1.43238    1.10876             0.12783  -0.052342 -0.0848672
 H              3.09522   0.872487    1.41995            0.132415  0.0641212  0.0354325
 H               4.0092    1.40587    1.07118            0.346091  0.0571394  -0.141278
 H             0.399289    2.50418    1.11393            0.194416  0.0670186 -0.0198876
 H              1.30736    1.95845     1.4269           0.0481482   -0.27392   0.133025
 H              2.21397    2.51243    1.11586           0.0871763  -0.154236  -0.362222
 H              3.10212    1.93973    1.43437          -0.0559839 -0.0638626   0.016794
 H              4.00949        2.5    1.12111           0.0741465 -0.0422171  -0.117207
 H             0.407775    3.62805    1.17147           -0.110606 0.00186318   0.215405
 H              1.31153    3.04048    1.44589           -0.227619   0.279709   0.224869
 H              2.18118    3.60807     1.1376          -0.0846587  0.0770538 -0.0950585
 H              3.11223    3.03819    1.43309            0.255208   0.137819 -0.0681089
 H              4.02273    3.60736    1.13896             0.15972   0.232977    0.14721
 H             0.457032    4.76884    1.19501          0.00928238    0.13543  0.0912269
 H              1.30379    4.13882    1.47333          -0.0172966   0.152314   0.101834
 H              2.20144    4.75118    1.21689           0.0780592   0.142264   0.289918
 H              3.09169    4.13333    1.46751          0.00825437   0.147539  -0.122577
 H              3.96077    4.73388    1.18546            -0.01306  0.0280515  -0.276782
 H              0.46662  -0.302002    2.07023          -0.0222827  0.0452082 -0.0304196
 H              1.31811   0.302704     2.3527          -0.0388779    0.14847   0.182125
 H              2.22444  -0.263538    2.07807           0.0165029   0.014569   0.201306
 H              3.08952   0.290709    2.35583            0.181523 -0.0413037  -0.102263
 H              3.97121   -0.32716    2.02622           -0.149112   0.130349  -0.113055
 H             0.394404   0.836685    2.05599             0.13184 -0.0929386   0.267761
 H              1.28612    1.39245    2.35452           -0.153857 0.00812249 -0.0489975
 H              2.20551   0.853781    2.07094          -0.0218235  -0.079421 -0.0207956
 H              3.09976    1.38492    2.38244            -0.10246  0.0334598  0.0630271
 H              3.99933   0.833841    2.05584            0.169689 -0.0943718 -0.0751931
 H             0.398227    1.95788    2.05912          -0.00696059    0.206394   0.0274931
 H              1.31399    2.48507    2.38313           -0.262641 -0.0976299   0.197194
 H              2.19372    1.94855    2.06675            0.128966 -0.0698759  -0.017113
 H              3.10678    2.45778    2.38396           -0.174417   -0.13762   0.113093
 H              4.01475    1.94049    2.05516            0.0830827 -0.00201008   -0.021198
 H             0.387707    3.05766    2.10104            -0.174678 -0.00330061    0.103303
 H              1.30383    3.56591    2.38773           -0.115404 -0.0667264  -0.113427
 H               2.2255    3.01627    2.04784            0.108562  0.0818267  -0.127407
 H               3.0956    3.55561    2.39144          -0.0381213   0.038746 -0.0684604
 H              4.00364    3.02955    2.08489           -0.159199  -0.332453 -0.0449077
 H             0.412879    4.15754    2.11683           -0.153973  0.0536488   -0.36222
 H              1.32356    4.71645    2.41178          -0.00967126  -0.0052707   0.0681059
 H              2.18974    4.11718    2.11387            0.051316    0.15018   0.131468
 H              3.08782    4.70243    2.38507           0.0914631   0.146481 -0.0376585
 H              3.99034    4.13272    2.10004           0.0209876  0.0870545  0.0311497
 H             0.420739   0.277899    3.00557            0.156398  -0.112359  -0.055368
 H              1.31134  -0.310628    3.26278          -0.0521411  -0.193372   -0.25349
 H              2.19005    0.29637    3.00808           -0.172094  0.0843567  0.0522986
 H              3.07293  -0.281313    3.28958           -0.034696 -0.0815821  0.0601255
 H              3.97201   0.270985    2.98885              0.1367  -0.177837 -0.0124332
 H             0.381387    1.38365    2.99763          -0.0699197   0.112347  0.0330437
 H              1.30556    0.84904    3.31681           -0.130547   0.130816   0.149836
 H              2.19468    1.39312    3.01256          -0.0391127  0.0609142  -0.107547
 H              3.08596   0.823763    3.32972           0.0378299  -0.301415  -0.024373
 H              4.00927    1.37716    3.01453            0.360966  0.0898561  -0.132386
 H             0.387675    2.47564    3.03493            0.123598    0.22542 0.00637736
 H              1.28922    1.92286    3.31195            0.132567 -0.0307547  0.0844441
 H              2.19066    2.47239    3.02132          -0.0315007   0.224158  0.0786833
 H              3.09185    1.92759    3.33967          -0.0147719 -0.0614404 -0.0325015
 H              4.00412    2.45978    3.03003           -0.172946   0.156781  -0.099776
 H             0.395164    3.59032    3.05222          -0.0653126   0.143745   0.222141
 H               1.2902    3.00923    3.33296          -0.0279329 -0.0187062  -0.148321
 H              2.19335    3.55246    3.01487           -0.016242 -0.0237312 -0.0335299
 H              3.09368    3.00276    3.33508           -0.211083  0.0254503  0.0486725
 H              4.00933    3.58506    3.04789          -0.0114272 -0.0509457  0.0846779
 H             0.478442    4.72479    3.09538          -0.0498882  0.0086512   -0.17438
 H              1.31436    4.07569    3.34724           0.0018805   0.309905  -0.053226
 H              2.21219    4.68303     3.0578           0.0988941 -0.0381781   0.150447
 H              3.08057     4.0816     3.3322          -0.0917755   0.150965 -0.0166361
 H              3.92545    4.71442    3.05878           0.0729118  -0.103478  0.0327303
 H             0.413576  -0.326002    3.91205           -0.241789  -0.184517 -0.0732272
 H              1.28857   0.241593    4.23943          -0.0231999  -0.026289  0.0749066
 H              2.20016  -0.298638    3.95239            0.115634  -0.050696 -0.0556108
 H              3.09055   0.252341    4.26124             0.205508 -0.00190055   0.0498122
 H               3.9989  -0.292255    3.91996           -0.054244 -0.0258384 0.00168246
 H             0.403583    0.81767    3.93492          -0.0685891 0.00352522 -0.0279187
 H              1.29348    1.35125    4.27739          -0.0147372 0.00286903 -0.0289332
 H              2.18446   0.819389      3.953           -0.152167 0.00021163   0.219012
 H              3.07848     1.3454    4.29863           -0.134821   0.142565   0.110361
 H              3.98916   0.806162    3.96222           0.0274387  0.0941861  -0.075226
 H             0.410033    1.93091    3.97049           -0.250935  0.0358504   0.213965
 H              1.29425    2.45246     4.2797           0.0542584  -0.118107   0.012354
 H              2.19552    1.93142    3.96543          -0.0932015 0.00240893  0.0628339
 H               3.0708    2.46669    4.30522           -0.172217  0.0194077  0.0634782
 H              3.98782     1.9309    4.00716            0.0243419 -0.00511063    0.221618
 H             0.420714    3.02175    3.99967           0.0842666   0.163193  0.0798236
 H              1.32256    3.55295    4.32418            0.305321  -0.137667  0.0102382
 H              2.18515    3.01937    3.97118            0.159745   0.026248 -0.0411143
 H              3.07295    3.58393    4.30379           -0.137582   0.159623  0.0689727
 H              3.96934    3.01932    3.99964           0.0514559 -0.0600074  0.0139345
 H             0.437569    4.15797    4.03064             -0.320818    -0.018015 -6.72659e-05
 H              1.43469    5.02333    3.82052           -0.015628   -0.17733 -0.0723157
 H              2.18992    4.11279    3.97466          -0.0627611   0.126201  0.0760492
 H              2.95242    4.96052    3.90813           0.0411553  -0.106471   0.137412
 H              3.95394     4.1666    4.00772            0.144647 0.00333643 -0.0576736
