125

 H             0.729615  -0.599566   0.571918           -0.130907  0.0934306  0.0925262
 H              1.34803   0.312514    0.47197            0.184318 -0.0365769  -0.185557
 H              2.26549  -0.566041   0.635555          -0.0456869 -0.0831246  -0.065236
 H              3.03049   0.261765   0.458952            0.143852 0.00203616 -0.0139109
 H              3.63309  -0.640934   0.561571           -0.150899  -0.274147   0.150028
 H             0.408339   0.845321   0.155389            0.180167  0.0561684  -0.189527
 H              1.30558    1.40984   0.472753          -0.0203508   0.142613   0.233085
 H              2.19934   0.862646   0.138263           -0.140343  -0.096673 -0.0530217
 H              3.10565    1.39897   0.457437           -0.139013   0.176901  0.0122643
 H              3.93969   0.810346   0.154964            0.220624 -0.0882333  -0.180941
 H             0.425729    1.98159   0.120831            0.251196  0.0893241 -0.0848561
 H              1.32054    2.50442   0.484491          -0.0075623  -0.114518  -0.231907
 H              2.21169     1.9723   0.135828            0.136314  -0.107796 -0.0985153
 H              3.10404    2.51381   0.487046             0.12121   0.112768   0.107993
 H              3.98069    1.94026   0.137792            0.140518  -0.026817    0.19998
 H             0.400774    3.07749   0.165437            0.122905  -0.146214  -0.212973
 H              1.29475    3.60553   0.519359          -0.0793202   0.133072  -0.010041
 H              2.19746    3.07373   0.172279           -0.046495  -0.212812 -0.0628453
 H               3.1169    3.62083   0.524782             0.15057 -0.0691095 0.00290875
 H              4.02393    3.09531   0.213167           -0.101713 -0.0766526   0.123735
 H             0.396737    4.18831   0.205199           -0.278918  0.0439684  0.0674713
 H              1.31197    4.71707    0.54668            0.026595   0.059874   0.260432
 H              2.20092    4.16234   0.204214           -0.111845  -0.107928   0.113053
 H              3.07081    4.72662   0.558903            0.138505  0.0330557 -0.0101917
 H              4.02217    4.20256   0.241031           -0.132881 -0.0454089  0.0487657
 H             0.394439   0.291381    1.10275          -0.0474689  0.0893852   0.126947
 H              1.34517  -0.263109    1.40429            0.188202  -0.265119  -0.119074
 H              2.17906   0.354076    1.13524          -0.0790843   0.198936 -0.0683994
 H              3.05479  -0.272943    1.42055           0.0686959  0.0979091       0.13
 H              3.97122   0.270949    1.12102          -0.0985824   0.129277  -0.126904
 H             0.389992    1.40293    1.09661          0.00891413  0.0150423   0.170125
 H              1.28795   0.868544    1.40948            0.290491   0.162238  -0.161282
 H              2.17784    1.42554    1.09737          -0.0702633 -0.0110333   0.066161
 H              3.09147   0.867967     1.4016           -0.266143 -0.0605154   0.112926
 H              4.00461    1.39632    1.11368           -0.436297  0.0730339 -0.0818824
 H             0.409943    2.48754    1.09143            -0.13774 -0.0473892  -0.083609
 H              1.30347     1.9532    1.43718           0.0558862  0.0151435  0.0607539
 H              2.20051    2.51698    1.11608          -0.0977907   0.221324 -0.0116496
 H               3.0942    1.94783    1.41733            0.377796  0.0791481   0.122419
 H              4.02267    2.49934    1.12827            0.109159   0.015927  0.0605635
 H             0.412598    3.60435    1.14343           0.0123293   0.108868  0.0980176
 H              1.31134    3.03615    1.43563           -0.227163 -0.0459644   0.170979
 H              2.20535    3.60541    1.14113           0.0504015 -0.0538299   0.119879
 H              3.11097    3.03808    1.44604           -0.270403   0.275683  0.0720314
 H              4.01562    3.61848    1.17635          -0.0058648  0.0614051  0.0555023
 H             0.441354      4.745    1.19876           -0.121286   0.244464   0.142158
 H              1.30075    4.12877     1.4775            0.198175 -0.0687849  0.0348845
 H              2.18951    4.72739    1.20795           -0.112382 -0.0191386  0.0351792
 H              3.08012    4.13387    1.47472            0.207287   -0.24165   -0.10397
 H              3.93735    4.76362    1.23072             0.13827   0.204353 -0.0277855
 H             0.445138  -0.338516    2.03468           0.0164647  0.0371805 0.00758577
 H              1.30687   0.288148    2.34553           0.0104373  -0.115045   0.094444
 H              2.19776  -0.246753    2.07325            0.252755 -0.0614141  -0.190542
 H              3.08908   0.324275    2.33189           -0.189686  0.0992024   0.330616
 H              3.98309   -0.28689    2.04825          -0.0655122  -0.100916  -0.198204
 H             0.400119   0.836827    2.03277            0.212153   0.184254   0.134085
 H              1.28607    1.38717    2.37912           -0.102883  -0.152947  -0.181354
 H              2.19204    0.86727    2.05811           0.0410451 -0.0883473  0.0142343
 H              3.09139    1.40124    2.37149          -0.0359442  0.0166587  0.0679772
 H              3.99721   0.837939    2.05503            -0.102678 -0.00286925   -0.179256
 H             0.388731    1.95419    2.04756            0.160845   0.057824   0.309909
 H              1.29946     2.4957    2.38055           -0.040139   0.121154  -0.124545
 H               2.1846    1.94509    2.04937           -0.104077 -0.0597277  -0.125955
 H              3.10585    2.47507    2.38881           0.0513029   0.154259   0.124975
 H              4.00257    1.94821    2.07535           0.0858565 -0.0304602   0.228721
 H             0.375518    3.04583    2.08262           0.0690303  -0.039733  -0.101684
 H              1.29618    3.57524    2.40494           0.0629196 -0.0171337 -0.0783941
 H              2.20704    3.01853    2.07121            0.0346881 -0.00398848     0.19821
 H              3.09128    3.55852    2.38839            0.111354  -0.208569   0.104715
 H              4.00158    3.03371     2.0922           -0.119969  0.0267625  -0.314571
 H              0.39352    4.15407    2.11255           0.0770364  -0.149637 -0.0839027
 H               1.3371    4.68701     2.4175           -0.173107   -0.27317 -0.0135455
 H              2.19481    4.09192    2.11024           -0.188647  -0.238354   0.132746
 H              3.06596    4.68772     2.3844           0.0536327  0.0233074  0.0529285
 H              3.98755    4.13326    2.12145          -0.0727854  -0.134422  -0.274955
 H             0.396337   0.276575    2.97672            0.174054 -0.0646911 -0.0163047
 H              1.31966  -0.271587    3.25966            0.178456  -0.251641   0.112284
 H              2.21431   0.293978    2.99348           -0.139781 -0.0939585  0.0144045
 H              3.10736  -0.294754    3.22132          -0.0465919 -0.0580014  0.0902056
 H              4.01112   0.298024    2.97141           0.0742859 -0.0841577 -0.0114445
 H             0.388618    1.38496    3.00288          -0.0717191   0.172846  0.0918643
 H              1.29962   0.831753    3.32892          -0.0426024   -0.17599  -0.302608
 H              2.19362    1.38535    2.99658           0.0405481   0.110233  0.0673871
 H               3.0967   0.833286    3.30238          -0.0460517   0.114662 0.00175722
 H              4.00532    1.38445    3.01633          -0.0462692  0.0593825   0.102985
 H             0.398946    2.47929    3.03084           0.0931355 -0.0276346  -0.111621
 H              1.30218    1.92959    3.34137              -0.414 0.00108093  -0.116056
 H              2.20146    2.46336    3.01694          -0.0466606   0.129212  -0.137651
 H              3.08093    1.90983    3.33254          -0.0941848  -0.164827  -0.127873
 H              4.01917    2.48326    3.04444            0.103084   0.106024  -0.190347
 H             0.410033    3.58916    3.04975            0.118923  0.0950358 -0.0950293
 H              1.30302    3.01407    3.34081           0.0560403 -0.0679302    0.15718
 H              2.19214    3.55329    3.03993           -0.0498353 0.000231288    0.235521
 H              3.10054    2.99052    3.34689           -0.064414  0.0583312   0.117655
 H              4.00121    3.59359    3.05461            -0.055641   -0.215194 -0.00958562
 H             0.471375    4.72885    3.08878            0.107271  -0.100302  0.0515595
 H              1.32396    4.08558      3.372           -0.163184  0.0420296 -0.0161449
 H              2.22014    4.68474    3.05596            0.142949 -0.0869782  -0.338076
 H              3.08179    4.07208     3.3199          -0.0214003  0.0293824    0.12728
 H              3.91156     4.7325    3.07814           -0.137557   0.227544  0.0960748
 H             0.397073  -0.284017     3.9039           -0.106367   0.207356  0.0864548
 H              1.31385   0.233754    4.25529           0.0827841  0.0752913 -0.0148346
 H              2.21637  -0.312429    3.89211            0.214952   0.118415  -0.364035
 H               3.1109   0.230542    4.20061          -0.0126909  -0.155955  -0.135111
 H              3.97465  -0.342109    3.90368           0.0223079  0.0756471  0.0473874
 H              0.41685   0.812763    3.95706           -0.125389   0.237239 -0.0108361
 H              1.31722    1.35061    4.30476          -0.0225842  0.0136988   0.134956
 H              2.20561   0.798339    3.96553            0.147539 -0.0360525    0.20854
 H              3.08899     1.3557    4.29732           -0.100461    0.30559  -0.083367
 H              4.01533   0.822173    3.97474           -0.128241 -0.0112704   0.158528
 H             0.395114     1.9134     3.9807           -0.198278  0.0580241   0.115866
 H              1.30173    2.44907    4.33193          -0.00783331   -0.103471  -0.0736843
 H              2.19475    1.89413    3.96781            0.100352  -0.102141  0.0279818
 H              3.08817    2.45629    4.31032            0.125319  0.0191046 -0.0350817
 H              3.99869    1.93567    3.96682            0.153015  0.0573868  0.0329792
 H             0.413406    3.01162    4.01371           -0.0695394 -0.00964201   0.0275459
 H               1.3377    3.56085    4.35096           0.0270533   0.108588 -0.0612566
 H              2.20758    3.01338    3.96082          -0.0782219  -0.165911  -0.145257
 H              3.08628     3.5846    4.29305            0.054415   0.149246  0.0288188
 H              3.98558     3.0353    4.00884          -0.0226651  -0.303691   -0.17226
 H             0.430606    4.12105    4.00967            -0.130805  -0.0141182 0.000587043
 H              1.38286    5.10221    3.66846             0.15933  -0.108955 -0.0949312
 H              2.20395    4.15771    4.00777           0.0605139   0.132415  0.0459825
 H              3.01239    4.99974    3.82193           0.0943504 -0.0337456 -0.0522171
 H              3.95608     4.1684    3.99141          -0.0977801  0.0524784  -0.207106
