125

 H             0.831292  -0.630836    0.51729            0.110825   0.210181  -0.138196
 H              1.34721   0.299953   0.466826          -0.0618639 -0.0430134  -0.112223
 H              2.20299  -0.501296   0.518479           0.0260573  0.0366499   0.144298
 H              3.02233   0.302491   0.431594           -0.137804  0.0194645   0.148902
 H              3.58195   -0.66435   0.566583           -0.180915  -0.151905  -0.082353
 H             0.431864   0.835016   0.108799            0.273502  0.0103094  -0.168103
 H              1.29706    1.41743   0.487828            0.085455 -0.0894503  -0.043314
 H              2.17811    0.88448   0.125163           -0.222251   0.148734 -0.0512354
 H              3.09356    1.41709   0.476244          -0.0596022 -0.0428084 -0.0644003
 H              3.96691   0.833652   0.128988            0.218982  0.0340354   0.293647
 H             0.376333    1.97234   0.141804            0.186434   -0.19771  -0.161517
 H              1.29143    2.50229   0.483515            0.213311 -0.0727105   0.121473
 H              2.20507    1.97923   0.150114            0.230669 -0.0666883   0.142312
 H              3.11091    2.50793   0.494089          -0.0357278  0.0252891 -0.0885003
 H              4.02492    1.95529   0.178062          -0.0962474  -0.235667   0.171615
 H              0.40339    3.07252    0.16473          -0.0979595  -0.127307  0.0405311
 H               1.3063    3.61677   0.508613           -0.193927   0.188076  0.0738054
 H              2.21166    3.06316   0.174651          -0.0759064  0.0406158   0.016104
 H              3.11357    3.60437   0.518123           -0.179915    0.27161  -0.154382
 H              4.00499    3.04704   0.176787            -0.18903  0.0962606   0.200943
 H             0.431984    4.18019   0.180462           0.0939398  -0.224268   0.130194
 H              1.32705    4.72209   0.527701           0.0392582   0.014795  -0.146333
 H              2.18992    4.16517   0.221595           -0.108782   0.123157  -0.111168
 H              3.05857    4.72787   0.550526          -0.0464954    0.11332  0.0529098
 H              3.98014     4.1642   0.201199           0.0644386   0.142971   0.082523
 H             0.447097   0.289564    1.09541          -0.0792711  -0.358411 -0.0338408
 H              1.37912  -0.273967    1.39713          -0.0231135  0.0591775  0.0340893
 H              2.19337   0.369018    1.13805           0.0976182   0.150991  -0.202968
 H              3.03406  -0.252748    1.40166          0.000765659 -0.00278845  -0.0117319
 H              3.92657   0.299027    1.07846          -0.0706821 -0.0332136  0.0360289
 H              0.36707    1.39943    1.09499           0.0157316   0.244048  -0.231378
 H              1.30554   0.864616    1.43083            0.133134   0.118673  -0.223896
 H              2.18762    1.43064    1.10958          -0.0833221  -0.228327  -0.241886
 H              3.07711   0.878929    1.42995          -0.0247225   0.147989   0.167155
 H              4.01225    1.40436    1.10801          -0.0184276  -0.137801   0.101182
 H              0.40184    2.50401    1.12103           0.0170878 -0.0158236  0.0975226
 H               1.2881    1.96043    1.42957           -0.0354087  -0.0671245 -0.00314263
 H              2.19419    2.51575     1.1278          -0.0681549 -0.0150083 0.00268309
 H              3.10335    1.95008    1.44618          -0.0301203   0.296246  0.0209127
 H              4.00148    2.52103    1.13331            0.106748   0.207587   0.171674
 H             0.389513    3.60491    1.13526            0.0472393 -0.00894283  -0.0583027
 H              1.30521    3.03474    1.44125            -0.06342 -0.0643066   0.342457
 H              2.19134    3.59307     1.1476             0.16339 -0.0603017  -0.210753
 H              3.09022    3.04816    1.44827            0.026783   0.046296 -0.0178425
 H              4.02116    3.60792    1.17717           -0.212475   0.124904 -0.0225594
 H             0.438567    4.74006     1.1504           -0.270624  0.0814027   0.138771
 H              1.30919    4.12255     1.4493           -0.323991 -0.0407314  -0.217795
 H              2.18681    4.71891    1.21873           -0.150705 -0.0217395  0.0239164
 H              3.09043    4.13513    1.46137           0.0337346  -0.154298  -0.331707
 H              3.96917    4.70252    1.16737           0.0794924   0.050899  -0.107684
 H             0.459299  -0.320148    2.05885           -0.141759 -0.0307245  0.0917022
 H              1.28926   0.306694    2.35822            0.052441   0.140926  0.0673241
 H              2.20153  -0.274172    2.11025            0.229315  -0.145963  -0.135344
 H               3.0866   0.310526     2.3607          -0.0133912  -0.187436  -0.248832
 H              3.96818  -0.257562    2.00684           -0.251592  -0.153718  -0.127836
 H             0.394798   0.834799    2.03341            0.153991   0.039827  0.0604457
 H              1.28412     1.4071     2.3851          -0.0588548  0.0630616 -0.0384465
 H              2.19321   0.863924     2.0913           0.0632147  -0.107584  0.0459781
 H              3.09686    1.39319    2.39852          -0.0694752  -0.105855  -0.003577
 H              3.98002   0.851769    2.04366            -0.15486  0.0390773   0.171073
 H             0.409774    1.93892    2.06616            0.107618  0.0551423  -0.243815
 H              1.29826    2.49607    2.38787            0.164438 -0.0182821   0.183969
 H              2.18556    1.92913    2.06572           0.0984715  0.0627545   0.012964
 H              3.07599    2.47809    2.39979           -0.105313   0.113759 0.00367383
 H              4.00267    1.95392    2.07234           -0.0196717   -0.065353 -0.00713893
 H             0.404753    3.04688    2.07513            -0.12929   0.149314 -0.0323429
 H              1.30467    3.58715    2.38681            0.131058  0.0625157  -0.163821
 H              2.20542    3.01849    2.08538           0.0198631  0.0206679  -0.122225
 H              3.09598    3.56183    2.40076           0.0627385  0.0995602 -0.0266244
 H              3.98234    3.05692    2.10771           0.0283619 -0.0542495  0.0030258
 H              0.42463    4.17476    2.09986          -0.0866642  -0.143453  -0.010931
 H              1.34219     4.7059    2.37288           -0.276106 -0.0224499   0.147248
 H              2.20524    4.10066     2.1084          -0.0130273 -0.0394032 -0.0246723
 H              3.06063    4.71901    2.36328            -0.163633 -0.00849497    0.138348
 H              3.97676    4.16975    2.13149           0.0891888  0.0624083  0.0936938
 H             0.409585   0.273207    3.00348           -0.145619  0.0680626  -0.246739
 H              1.32569  -0.330546    3.25041           -0.251203  -0.191048  0.0995786
 H              2.21213   0.307713    3.00806           -0.163996   0.106226  0.0787426
 H              3.10152  -0.327746    3.21931            0.259834 -0.0123109 -0.0238253
 H              3.98404   0.281204    3.01341           0.0102437   0.102349 -0.0297427
 H              0.39093    1.37335      3.013          -0.0706507   0.109609  0.0817557
 H              1.31011   0.811418    3.31588            0.109797   0.051496   0.102536
 H              2.19198    1.38913    3.02879          -0.00684198  -0.0587915   -0.114427
 H              3.09869   0.814954     3.3358             0.158919  -0.0788067 -0.00996964
 H              3.99467    1.36798    3.02578           0.0289178 -0.0304648   0.151238
 H             0.407999    2.47041     3.0234           0.0202741  0.0124238  0.0839715
 H              1.30752    1.91598    3.34795            0.185905   0.112137 -0.0120363
 H              2.19035    2.46897    3.02507            0.0622336   -0.090757 -0.00594421
 H              3.08581    1.91392    3.35407          -0.0639713  0.0213734 -0.0708733
 H               3.9967    2.47745    3.01873             0.16553  -0.283536  0.0302281
 H             0.412544     3.5901    3.03437           -0.151368  -0.152562 -0.0287116
 H              1.29263    3.01581    3.35003             -0.1934   0.223665  0.0806719
 H              2.19786    3.55986    3.03748          -0.0126809  0.0498286   0.152097
 H              3.11511    3.01762    3.36146            0.140656  0.0255975  0.0671018
 H              3.99628    3.60143    3.05248           0.0886447   -0.06288 -0.0654305
 H              0.48108    4.74037    3.06103            0.231312 -0.0731154 -0.0145139
 H              1.33783    4.10968     3.3244           0.0919765 -0.0700016  0.0853555
 H              2.20619    4.68366    3.03377           -0.139365 -0.0713736  -0.243105
 H              3.07426    4.09001    3.33275          -0.00100603   -0.277203  0.00183914
 H              3.88249    4.76715    3.10119          -0.00214347   -0.128684   -0.133324
 H             0.436895   -0.32193    3.91105           0.0895187   0.213017   0.314877
 H              1.30963   0.225466    4.23746          -0.0582092   0.200671   -0.10691
 H              2.22319  -0.321197    3.89141             0.10223  0.0176725  -0.204952
 H              3.10033   0.214216    4.24222           0.0969689 -0.0128414  0.0893885
 H              4.00356  -0.350178    3.91155           -0.0395163 -0.00184126     0.24022
 H             0.423161   0.807129    3.98608           -0.100142  0.0498796  -0.102157
 H               1.3235    1.36172    4.29213           -0.066761  0.0640287   0.026564
 H              2.19396   0.809691    3.95894           0.0394253  0.0496596 -0.0308088
 H              3.08648    1.33991    4.28609           0.0174055 -0.0899046  -0.132718
 H              4.02507   0.777768    3.97407           0.0468178  0.0775656    0.09412
 H             0.419968     1.9196    3.97448            0.107251 -0.0319982  -0.155863
 H              1.30959    2.47439    4.30867             0.12848   0.105014   0.269495
 H                2.204    1.91608    3.99612            0.165453  -0.033408   0.112644
 H              3.09444     2.4647    4.33699           -0.275146   0.108958   0.170265
 H               3.9858    1.89669    3.98206           0.0765861  -0.135519   0.110558
 H              0.39822    3.03201     4.0025          -0.0884587   0.112579 -0.0263821
 H              1.33658    3.56738    4.31327            0.216903   -0.22832    0.30233
 H              2.20034    3.01804    3.98537          -0.0712769   0.277761   0.164259
 H              3.06587    3.55142    4.31913           -0.108606  -0.150708   0.154524
 H              3.99621    3.01346    3.99396           0.0777109  -0.221752  -0.303225
 H             0.443541    4.15703     3.9809          -0.0838908  0.0253808  -0.206059
 H              1.51998     5.0426    3.82767            0.200758  -0.173249  -0.113226
 H              2.20474    4.14944    3.98599            0.136875  0.0842132  -0.141511
 H              2.94343    5.03568    3.80646           0.0717631  0.0430692   0.167632
 H              3.91885    4.13997    4.01443            0.125069 -0.0205449 -0.0618163
