125

 H             0.831564  -0.648929   0.544757           -0.174039   0.116717   0.106582
 H              1.34625   0.307461   0.469042            0.165042   0.359572  -0.031666
 H              2.09705   -0.53436   0.546305            0.103817   0.209336   0.361577
 H              3.06249   0.301104   0.466044           0.0675594    0.12369  -0.152348
 H              3.59111  -0.667074   0.558523           -0.136609 -0.0396897  -0.100087
 H             0.430094   0.834252   0.115316          -0.0190716   0.132387  0.0791871
 H              1.31679     1.4036   0.458789          0.00229171   -0.11036  -0.144526
 H              2.20907   0.850372   0.171758            0.142931  -0.126777   0.104463
 H              3.09559    1.39281   0.482718           -0.157458   0.155596    0.14563
 H              3.96052   0.800139   0.109271           -0.107658  -0.122715   -0.14064
 H             0.424522    1.97163   0.127046           0.0752349  -0.137199  -0.209488
 H              1.30401    2.51195    0.46085          -0.0942132  -0.105525 -0.0313409
 H              2.22787    1.95038    0.13781          -0.0229146   0.111605   0.183336
 H              3.10309    2.49968   0.486685           0.0838532   0.185927   0.037611
 H              4.00701    1.94126    0.12996          -0.0975811  -0.159808 -0.0535853
 H             0.401358    3.08902   0.181296           0.0768227 -0.0723852   0.021348
 H              1.30051    3.60814   0.508413          -0.0325174  -0.134055  0.0703885
 H              2.21172    3.06384   0.176574             0.156066    0.191174 -0.00718052
 H              3.10305    3.60389   0.495759            0.197284 -0.0358017 -0.0114941
 H              3.99801    3.06806   0.182726            0.202606 -0.0425444   0.087297
 H             0.420735    4.21077   0.229021          -0.00273869   0.0759941   0.0822776
 H              1.31567    4.73062   0.552857          -0.00408935    0.103085   -0.136522
 H               2.1942    4.20011    0.22859          -0.0754839  0.0809055  0.0341627
 H              3.08837    4.74347   0.570783            0.357304   0.171345   -0.23247
 H              3.97566    4.21016   0.220671            -0.354772 -0.00128733  -0.0855208
 H              0.44215   0.283097    1.08627           -0.125023 -0.0739027   0.148457
 H              1.35821  -0.256456    1.40542             0.23061   0.127355   0.158388
 H              2.20904   0.332052    1.14959           -0.104208 -0.0973262  -0.128774
 H              3.06591  -0.259504    1.42815           -0.190898 -0.0500931  -0.128527
 H              3.96019   0.278797    1.08284           0.0534855   0.252994   0.136422
 H             0.412982    1.42196    1.09125           -0.230051  -0.173213  -0.230131
 H              1.31499   0.860686    1.40656          -0.0308613   0.152547 -0.0831908
 H              2.19772    1.41135    1.10363            0.227346  -0.111338   0.180026
 H              3.09901   0.870617    1.42767           -0.369762  -0.185328  0.0747603
 H              4.01131    1.39337    1.07356           -0.134177 -0.0255517 0.00601553
 H              0.39822     2.5052    1.12304           -0.102149 -0.0535219  -0.103512
 H              1.29608    1.94783    1.42496           -0.160768    0.16504 0.00814953
 H              2.19983    2.49026    1.11758           0.0451462  -0.257678 -0.0265368
 H              3.10769    1.94608     1.4221          -0.0396936   0.128492  0.0953214
 H              4.01332    2.49042     1.1152          -0.00913309  -0.0136413    0.058182
 H             0.409653    3.60479    1.15973           0.0102567  0.0630436   0.227124
 H              1.31252    3.04401    1.44306          0.00774208 -0.0577892 -0.0334629
 H              2.20243    3.60705    1.13766           0.0226821  0.0339574 -0.0796204
 H              3.09922    3.03622    1.44673           0.0787318  0.0122955    0.14697
 H              4.00744    3.61243    1.14624           -0.025298 0.00286357 0.00685351
 H             0.442517    4.73072    1.23994          -0.0372478  -0.018581 -0.0874654
 H              1.30519    4.13093    1.48458          -0.0346766  -0.155116  0.0242749
 H              2.20567    4.74016    1.23093           -0.261635  0.0117931 0.00894764
 H              3.08268    4.12073    1.45755          -0.00597219   -0.163645   0.0617719
 H              3.95597    4.73674    1.23528            0.204962  -0.108915  -0.262902
 H             0.469947  -0.288902    2.07952            0.376775  -0.275702 -0.0336809
 H               1.3328   0.306651    2.34986          -0.00146481   0.0285394   -0.115529
 H              2.22354  -0.264186    2.07431            0.135487   0.101365 -0.0073261
 H              3.08403   0.305908    2.35468            0.210805   0.043483 0.00524293
 H              3.96047  -0.284281    2.05413            0.226356   0.135693  -0.121397
 H             0.417826   0.850695     2.0314            0.150708  -0.153366  -0.222488
 H              1.31448    1.39597    2.37808            0.246183  0.0640305  -0.104746
 H                2.192   0.874846    2.05879           -0.102747 -0.0646794   0.108258
 H              3.09454    1.39071    2.37845            0.113427  -0.117821   -0.10821
 H              3.99946     0.8343     2.0362          -0.0503775   -0.03736  -0.062944
 H             0.396807    1.93784    2.05898            0.162629 -0.0376113  0.0708246
 H              1.30374    2.47647    2.39297          -0.0906319  -0.150839   0.142593
 H              2.20658    1.94782    2.06477            0.101907  0.0271866  0.0367804
 H              3.09779    2.47746    2.38156            -0.15182  0.0677886  0.0236945
 H              3.99774    1.94149    2.07234             0.23559  -0.230728   0.116836
 H             0.395511    3.03904    2.10002          -0.0343576  0.0562376 -0.0343633
 H              1.29819     3.5677    2.40358          -0.0345024 -0.0249571   0.265324
 H              2.20416    3.04242    2.06584           0.0249017 -0.0154435  0.0926632
 H              3.09421    3.55614    2.40284           -0.139878 0.00812276   0.174396
 H              3.98595    3.02901    2.05353           -0.178226  -0.115462 -0.0724964
 H              0.42376    4.15493    2.14821           0.0542695   0.142346 0.00851372
 H               1.3293    4.70657    2.40892            0.217658  0.0583677  -0.182391
 H              2.19146    4.12273    2.11164            0.132073   0.041557  -0.008835
 H              3.07346    4.70864       2.36          -0.0511814    0.22713  0.0852638
 H              3.97108    4.13535    2.12451           -0.149995   0.011762  -0.102977
 H               0.4119   0.272718     2.9836           -0.184944 -0.0709316  0.0652749
 H              1.30349   -0.28313    3.25524           0.0615481  0.0260508 0.00921763
 H              2.18309   0.318957    2.98243           -0.102916  0.0690224 -0.0663075
 H              3.07218  -0.287137    3.27413            0.282239   0.100196 -0.0338959
 H              4.00534   0.303609    2.97755           -0.175752 -0.0455909   -0.07351
 H             0.394398    1.37112    3.01097           -0.194341   0.185589  0.0981456
 H              1.30196   0.832189    3.31668          -0.0911471    0.23441 -0.0647151
 H              2.20427    1.39967    3.01645          -0.0228882 -0.0826057  -0.154702
 H              3.10108   0.822297     3.3357            0.181637  -0.213206   0.070949
 H              4.01165    1.38776    3.01406            -0.13648  0.0630979 -0.0200478
 H             0.387736    2.47361    3.02691           0.0463887  0.0152316 0.00869952
 H              1.30816    1.91898    3.35609            0.166191  0.0657093  -0.134164
 H              2.19505    2.47339    3.01119           -0.280853 -0.0137938 -0.0549491
 H              3.09626    1.91341     3.3377            0.0420992    0.156433 0.000752345
 H              4.01599    2.48137    3.02415           -0.0433824   0.0575056 -0.00584105
 H             0.387127    3.56936    3.07227          -0.0930035  -0.050844   0.193608
 H              1.29505    3.00935    3.34735          -0.0615244 -0.0495329   0.239841
 H              2.19648    3.55232     3.0417           -0.152742  -0.079133   0.173912
 H              3.08762    3.00285     3.3369           -0.136186  -0.217085   0.111747
 H              3.98288    3.57135    3.03737           0.0101577    0.20459  0.0895015
 H             0.465715    4.73556     3.0992           0.0912602 -0.0622509 -0.0265943
 H              1.33006    4.08561    3.33772           0.0150704   0.175742 -0.0485523
 H              2.22992    4.68212    3.04572          -0.0283519   -0.14311 -0.0140554
 H               3.0703    4.08381    3.31755           0.0720448   0.154083 -0.0826249
 H              3.92761    4.73463    3.04524            0.229502  0.0510245   0.152197
 H             0.409109  -0.317051    3.91209          -0.0802843  0.0880164  0.0600533
 H              1.30345   0.244831    4.25117          0.00361406  -0.127734   0.213471
 H              2.17716  -0.286702    3.91254           -0.0651206   0.0305877 -0.00704761
 H              3.10856   0.204767    4.24041           0.0328129   0.142246  -0.168283
 H               4.0121  -0.305656    3.87789           0.0344886  -0.164155 -0.0840708
 H             0.395446   0.797306    3.96524           0.0861538  -0.054883 -0.0441188
 H              1.28755    1.35843     4.3017            0.144191  -0.103058   0.198661
 H              2.19168   0.822016    3.94027           -0.133068  0.0156086 -0.0506252
 H              3.08094     1.3449    4.31556           -0.235201 0.00564402  -0.113451
 H              3.98288   0.829255    3.97943          -0.00314598   0.0338098     0.25492
 H              0.39128    1.89885    3.97232           0.0325805  -0.147152 -0.0379236
 H              1.30265       2.45    4.29965           0.0328592   -0.12111  -0.103282
 H              2.20977    1.91257    3.96706            -0.30931   0.151711 -0.0776112
 H              3.09812     2.4764     4.3221          -0.0201371 -0.0891189  0.0237481
 H              3.98507    1.91144    3.98734           0.0483541  -0.117621 -0.0587556
 H              0.39215    3.01586    4.02187           0.0967392  -0.213034 -0.0667373
 H               1.3022    3.55471    4.28936           0.0701062  0.0187392 0.00998777
 H              2.18709    2.99463    3.97492           0.0387439  -0.178636  0.0681511
 H              3.05876     3.5846    4.29884           -0.131774  0.0282224  0.0946868
 H              3.97559    3.04841    4.00567          -0.0342854 -0.0307219  0.0680867
 H             0.419582    4.14709    4.00678          -0.0753808   0.441106  -0.163685
 H              1.43593    5.08571    3.69646          -0.0994289   -0.11814  -0.197516
 H              2.19224    4.14751    4.01614            0.108173 -0.0869305  -0.150612
 H              3.00357    5.00576     3.8506           0.0239554  -0.129865 -0.0119065
 H              3.94678    4.16138    3.99448            0.166075  0.0723021  -0.197562
