125

 H              0.83861  -0.646432   0.570131            -0.11831 -0.0709872  -0.215401
 H              1.34309   0.327174   0.457257            -0.22811  -0.117207  -0.126357
 H              2.06285  -0.577532   0.596836            0.076582  0.0903032  -0.183206
 H              3.09452   0.287387   0.475968          -0.0194642  -0.133195   0.204188
 H              3.71607  -0.609393   0.589046          -0.0946541 -0.0586332   -0.08564
 H             0.386325   0.838342   0.138565          -0.0861612   -0.13355 -0.0976759
 H              1.28556    1.39233     0.4495            0.162633 -0.0361407  -0.138742
 H              2.21339   0.850364   0.119994            0.148864   0.176778  0.0371949
 H              3.09617     1.4089   0.467344          -0.0421312  -0.254029  -0.133549
 H               3.9777    0.83721   0.143745           0.0712845 -0.0652431  -0.123152
 H             0.376692    1.96717   0.143943            0.252493  0.0376596 -0.0921148
 H              1.28232    2.49586   0.496225           0.0910341 -0.0355591 -0.0262528
 H              2.17815    1.94506   0.152113          -0.0695645  -0.229047  0.0542281
 H              3.11166    2.50111   0.488962          -0.0933531  0.0117748  0.0673756
 H              3.97488    1.96862   0.116221          -0.0581742 -0.0464954  0.0738032
 H             0.384297    3.08058   0.157661           -0.197325  0.0133811  -0.193082
 H              1.31449    3.60529   0.496749           -0.316396  0.0460662 -0.0340562
 H               2.2102    3.04781   0.171949          -0.0656406 -0.0185821  0.0231601
 H              3.09075    3.60541   0.512741           -0.118498 -0.0489471 -0.0199881
 H              3.98374     3.0998    0.13538            0.444149   0.184109   0.170863
 H             0.420456     4.1827   0.223916            0.071481  -0.166514  -0.012057
 H               1.3167    4.73806   0.572693          -0.0478271 -0.0326423   0.196581
 H              2.20149    4.17067   0.195608          -0.0222745   0.199994  -0.126645
 H              3.08782    4.73355     0.5311           0.0194006   0.147493 -0.0900358
 H              3.99037    4.19133   0.208082          -0.0181047 0.00916309 0.00688722
 H               0.4124   0.278459    1.10835            0.258441 -0.0775986 0.00902064
 H              1.35559  -0.243332    1.41465           -0.032638   0.223324   0.145928
 H              2.20595   0.347556    1.10639           0.0486496   0.105971   0.013868
 H              3.03753  -0.281449    1.40547          -0.00359876   -0.088029    0.171583
 H              4.00906   0.310067    1.10494          -0.0372121   0.129597  0.0615868
 H             0.382499    1.41428    1.09396           -0.132134   0.102152  0.0242022
 H              1.29499   0.856831    1.42125            0.150625  -0.168724 -0.0770455
 H              2.19163     1.4077    1.10612           0.0888307  -0.106528  0.0466767
 H              3.09793    0.85889      1.409             0.13272 -0.0723912 -0.0512804
 H              4.00937    1.41269    1.10549          -0.00310042 0.000477473    0.131225
 H              0.38492    2.51419    1.12834          -0.0177779   0.277006  0.0282422
 H               1.3073    1.95323    1.43032            0.127583  -0.125773 -0.0580766
 H              2.19923    2.50623     1.1203            0.173261  -0.132039  -0.059323
 H              3.09766    1.94178    1.41797           0.0497672  -0.162667  -0.230469
 H              4.00007    2.50176    1.10853          -0.0678508  0.0459339    0.10325
 H             0.414138    3.60962    1.13809           -0.146546  0.0559908  0.0122079
 H              1.31636    3.03506    1.45646           -0.109338 -0.0610255 0.00672033
 H              2.22041    3.57929    1.14774          -0.0812679 -0.0826796  -0.277508
 H              3.09899    3.02361    1.45351          -0.0961686 -0.0748525  -0.168789
 H              3.99144    3.58774    1.14492            -0.25034   0.240796 -0.0436954
 H             0.422124    4.73628    1.23395          -0.0387351  -0.153342  -0.028913
 H              1.32276    4.12635    1.45778          -0.0272127  -0.130449  0.0948967
 H              2.20936    4.71345    1.20109           -0.283775  -0.255547 -0.0974303
 H              3.11438    4.13871    1.44972           0.0957019   0.207055  -0.236721
 H              4.00134    4.73303      1.168           -0.137242  -0.137868   0.145999
 H             0.457338  -0.321118     2.0661           -0.229467  -0.110378   0.186654
 H              1.31098   0.314032    2.34516            -0.19642  0.0391724 -0.0167876
 H              2.21258  -0.268299    2.10039           0.0333273  0.0459302  -0.198432
 H               3.0827   0.307041    2.34193            0.170403 -0.0829595   0.180796
 H              3.95458  -0.284993    2.05018            0.038068  0.0856935 -0.0914721
 H             0.404208   0.834742    2.02904              -0.0263 -0.00326732  -0.0105521
 H              1.31183    1.40604    2.38124          -0.0864419   0.188435 -0.0875648
 H              2.20448   0.859278    2.05682           -0.221883  0.0482521   0.052546
 H              3.09955    1.38534    2.36911          -0.0962264 -0.0279376   -0.18621
 H              4.00526   0.847913    2.06108            0.140203   0.041405  0.0331045
 H             0.412034    1.93694    2.07414           0.0549449   0.156347   -0.11921
 H              1.30872     2.4891    2.40707          -0.0193457   0.120216 -0.0737257
 H               2.2102    1.94853    2.05342            0.241635  0.0799932 0.00794964
 H               3.0937     2.4785    2.38184          -0.0919808 -0.0551166   0.286962
 H              3.99028    1.95551    2.06492           -0.174196 -0.0767782  -0.179237
 H             0.413479    3.04578    2.07516           -0.159472 -0.0423449 -0.0527076
 H              1.31313    3.57591    2.38471          -0.0832841 -0.0531982   0.271599
 H              2.20989    3.03214    2.09402           0.0302935 0.00178145  -0.282791
 H              3.10649    3.59378    2.38847          -0.0277997  -0.242305   0.162509
 H               3.9954    3.03005    2.09352           -0.046636  0.0795191 -0.0307137
 H             0.419451    4.14093    2.12934          -0.0161411  0.0330572 -0.0676399
 H              1.35147    4.73966    2.37346            0.172225  0.0834732 -0.0727371
 H              2.22071    4.12736    2.11274            0.0792411   -0.130133 0.000193975
 H              3.09125    4.71615    2.38034            0.138424  -0.249883   0.239865
 H              4.00953    4.15408    2.10622           0.0762753   0.170247   0.102676
 H             0.395677   0.265942    2.97856          -0.0051546   0.066156 -0.0238592
 H              1.33663  -0.313129    3.23112            0.029321 -0.0514448   0.243862
 H               2.2015   0.291708    3.01316            0.100248   0.183794  0.0897508
 H              3.08913   -0.30343    3.26736           0.0848613  -0.148651 -0.0323135
 H              3.97949   0.290087    2.98545            -0.13454   0.118283 -0.0131214
 H             0.400888    1.35834    3.01013           -0.209447  -0.146736 -0.0909357
 H              1.30082   0.811689    3.31915           0.0409868   0.128849  0.0332058
 H               2.1911    1.38474    3.00162           -0.188375  0.0632814  0.0958175
 H              3.07722   0.830459    3.31377          -0.0541551   0.182081  -0.184156
 H              3.99249    1.38577    3.01811           -0.231314 -0.0255469   0.020672
 H             0.385839    2.47208    3.04028           0.0253593  -0.166621  -0.332433
 H              1.28914    1.93606      3.341           0.0718758   0.116187   0.105292
 H              2.19703    2.47949    3.03002           0.0563169   0.142206 -0.0209601
 H              3.08867     1.9313    3.32158          -0.0237881  -0.165045 -0.0463975
 H              3.99019    2.48067     3.0392          -0.0879489  0.0103725  0.0123365
 H             0.405626    3.58683    3.05147          -0.0549906  0.0637186   0.180308
 H              1.30711    3.01845    3.34048           0.0866899  -0.109521  -0.131132
 H               2.1998    3.56451    3.03306          -0.0400372    0.24793  -0.046506
 H               3.0866    3.01803    3.33402          0.00245645 -0.0103886   0.172837
 H              3.99966    3.58579    3.04211           0.0553452  0.0675975   0.201774
 H             0.487225    4.78538    3.04465            0.167662   0.164768   0.168077
 H              1.30858    4.10554     3.3053           -0.117319 -0.0315876  -0.168744
 H              2.20252     4.7014    3.07014           0.0387787   -0.10902   0.195671
 H              3.08077    4.09843    3.32962          -0.0315208   0.261189   0.113474
 H               3.9439    4.71735    3.05102            0.391791  -0.122034   0.038279
 H              0.41548  -0.332652    3.89942          -0.0772335   0.235967 -0.0903959
 H              1.30711   0.217517    4.25818            0.120813  -0.160846   0.133228
 H              2.19073  -0.303085    3.90973           0.0741775  0.0496308 -0.0221053
 H               3.1043   0.260075    4.22423           0.0916379   0.119607   0.171469
 H              3.97942  -0.321198    3.90121            0.0256673 -0.00368339   0.0569987
 H             0.405881   0.779607    3.96073           0.0288128  -0.122658  0.0636379
 H              1.28856    1.32814     4.2802          -0.0771227 -0.0172176 -0.0815686
 H              2.19352   0.797427    3.94768            0.133648   0.247347 -0.0715682
 H              3.06996    1.36727    4.28906            0.310945 -0.0233062   0.140576
 H              4.01498   0.813299    3.95307           0.0344648  -0.200508 0.00156254
 H             0.385751    1.90475    3.99172          -0.0422202  -0.209334 -0.0378785
 H              1.28234    2.46221    4.30251           0.0377379   0.164555  0.0341968
 H               2.1718    1.92948    3.95898           0.0867159 -0.0510849 -0.0152579
 H              3.08469    2.46507    4.29305           -0.086649   0.268077  -0.130639
 H              3.99998    1.93034    3.99559           -0.182003   -0.11305   0.118152
 H             0.392649    3.02408    3.97846            0.135462  -0.137487  -0.127858
 H              1.28643    3.57589    4.31154            0.210845  0.0745465   0.119606
 H              2.20352    3.01313    3.98899          -0.0188442  0.0114254    0.00347
 H              3.08105    3.56806    4.31263            0.0619726 -0.00224952   0.0420208
 H              3.97576    3.03302     3.9731           -0.158357 -0.0560995 -0.0398212
 H             0.436441    4.20084    3.97248           0.0696629  0.0386282  0.0411677
 H              1.43359    4.97504     3.8815            0.033292    0.17662   0.195676
 H               2.2001    4.14877    4.01407           0.0752103  -0.160793   0.181739
 H               3.0072    4.93737    3.99341           0.0103147 -0.0400277 0.00844945
 H              3.92613    4.19426    4.03162            0.025926  0.0541677  -0.133213
