125

 H             0.823367  -0.625287   0.508257          -0.0587148  0.0203255  0.0997704
 H              1.33925   0.331848    0.44169           0.0111874   0.195895   0.103032
 H              2.08356  -0.516424   0.504281             0.24522  -0.235524  -0.032651
 H              3.03475   0.257654   0.446637            -0.056194  -0.0075042 -0.00610323
 H              3.64112  -0.643536    0.61575           0.0890836  0.0830159  0.0232254
 H             0.408849    0.83513     0.1151           -0.108674   0.166098  -0.186506
 H              1.30483    1.39404   0.459552           -0.311062  -0.239665  -0.171472
 H              2.20578   0.877418    0.13468           0.0405343  0.0453484   0.275876
 H               3.1144     1.3919   0.476785          -0.0247359  0.0913266   0.309461
 H              3.95957   0.804578   0.139687           -0.144423    0.14338   0.187916
 H             0.391268    1.95472   0.152096           -0.237449 -0.0179472   0.141396
 H              1.29149    2.48241   0.491045           0.0265005  -0.049336  -0.268895
 H              2.20013    1.97362   0.140126          -0.0376076  -0.216188  -0.044448
 H              3.07426    2.51989   0.463326           0.0786596  -0.295025  -0.169932
 H              3.99986    1.94003     0.1395          0.00403452   0.163105 -0.0668676
 H             0.403379    3.06108   0.168438           -0.171991  0.0650678 -0.0568982
 H               1.2861     3.5976   0.505618          -0.0431487  0.0433018  0.0420838
 H              2.19421    3.09627   0.170937           -0.153823  0.0951866  -0.195005
 H               3.0905    3.61367   0.498859          0.00509428   0.153757   0.161435
 H               3.9877    3.08307   0.190102           -0.103327   0.201654  0.0461309
 H             0.418521    4.19632   0.211668          -0.0107266   0.253246  0.0854567
 H              1.31831    4.71933   0.555297             0.0405248 -0.000477633     0.123795
 H              2.20411    4.18951    0.19635          -0.0767145 -0.0289211  -0.258284
 H              3.09952    4.72427   0.546558            0.122954   0.128505  -0.034545
 H              4.02109    4.18915   0.222647             0.33182 -0.0174151  0.0868111
 H             0.436094   0.274438    1.07073           -0.137706 -0.0638659 -0.0259263
 H              1.35916  -0.256815    1.39017          -0.0193953  0.0808641  -0.133301
 H              2.20003   0.356388    1.11278          -0.0004992  0.0305728  -0.201329
 H              3.03058  -0.266388    1.42531            0.153599 -0.0305819 -0.0466494
 H              3.94027   0.284725    1.12067          0.000742668   0.0167143    0.149781
 H             0.404047    1.39159    1.09775           -0.108004  0.0859399  0.0260479
 H              1.29673   0.847922    1.43374          -0.0283388 -0.0822881   0.186864
 H              2.19056     1.4274    1.10134           0.0520044  0.0581024   0.116463
 H              3.06917   0.873776    1.42471           0.0602381 0.00580535    0.21459
 H              4.00122    1.40333    1.10468            0.147273   0.125484  -0.115818
 H              0.36512    2.47719    1.11943          -0.0623232  0.0316593  -0.108853
 H              1.30312    1.93789    1.42929           -0.175814  -0.168823 -0.0025522
 H              2.19031    2.50899    1.10762           0.0418751   0.124067   0.092566
 H              3.10552    1.95586    1.42298          -0.00719756  -0.0619785   0.0371509
 H              4.00409     2.5016    1.12918           0.0217197   0.139324 -0.0325921
 H             0.386728    3.59668    1.14023            0.150664   -0.18734  -0.109661
 H              1.29683    3.02412    1.43459            0.174109   0.237524 -0.0190232
 H              2.19962    3.61026    1.14968          -0.0950969 -0.0894966  -0.124789
 H              3.09917    3.04158    1.45129            0.208961 -0.0801035 -0.0377795
 H              4.02688    3.62108    1.17555            0.166046 -0.0118227  -0.162603
 H             0.411703     4.7273    1.17243           -0.203762  0.0955066  -0.207643
 H              1.30573    4.13211    1.45147           -0.161667  -0.013507   0.150235
 H              2.21622    4.73367    1.21194          -0.0584586  0.0162823 0.00819594
 H              3.11087    4.14868    1.46297            0.171492   0.113231    0.12321
 H               3.9677    4.75953    1.20235            0.120008 -0.0613921 0.00481616
 H               0.4423  -0.256744    2.02362           0.0868791  -0.191351  0.0556164
 H              1.29573   0.298369    2.36267           -0.145608  0.0725003  -0.134043
 H               2.1913  -0.271544      2.098          -0.0138803 -0.0718203   0.157226
 H              3.10892   0.312917      2.343            0.194829 -0.0502581   -0.17731
 H              3.95445  -0.322134    2.05353            0.180692   0.269304   0.158912
 H             0.377046   0.841573    2.02442          -0.00409331  -0.0328105   0.0516634
 H              1.29594    1.38387    2.38121           -0.128243   0.184335  0.0340128
 H              2.19543    0.85194    2.06326          -0.0861113  -0.287231   0.106235
 H                3.097    1.40577    2.38894             0.148451 -0.00669267 -0.00878043
 H              4.00251   0.847201    2.06344           -0.0334424 0.000575859    0.161328
 H             0.380811     1.9252    2.07253           -0.075067 -0.0118339   0.133301
 H              1.29724    2.47778    2.38872           0.0710399  0.0368523  -0.168174
 H              2.19387    1.94334     2.0524           0.0126621 -0.0459918   0.182676
 H              3.10003     2.4987    2.39141           0.0754475  -0.182987  -0.106307
 H              4.00927    1.95081     2.0739           -0.239298   0.269739  -0.118245
 H             0.387725    3.05143    2.07293           -0.342452 0.00313862   0.172888
 H              1.29689    3.56318    2.38299          0.00173418   0.104382   0.256145
 H              2.18841    3.02706    2.08174           0.0566334  -0.126194  -0.151397
 H              3.09707    3.57779    2.40154           -0.189328 -0.0794704   0.234538
 H              3.99166    3.04891    2.09097           -0.274506 -0.0458142  0.0430439
 H             0.409703    4.14988    2.10268            0.141082 -0.0555429 -0.0199734
 H               1.3408    4.69897    2.36869            0.171082  -0.271249 -0.0613937
 H              2.21176     4.0968     2.0949            0.187102  0.0444914 -0.0437222
 H              3.07062    4.70631    2.39286           0.0893827    0.13435  -0.120029
 H              3.99058    4.16517    2.15312           0.0376599  -0.118615  -0.218111
 H             0.401361   0.275179    2.99383          -0.0228691  0.0474731 -0.0592077
 H              1.32159  -0.316332    3.25556           -0.109937  -0.163195   0.214873
 H              2.21748   0.299717    3.01052            0.145663   0.334065  -0.116255
 H              3.10197  -0.293696    3.23318          -0.0471233   0.018166  -0.102794
 H              3.99738   0.286753    2.99003            0.141565    0.01409 0.00929744
 H             0.373478    1.38873    3.02004           0.0328939   0.130491  -0.176454
 H              1.30084   0.809403    3.31333           -0.109519 -0.0900003  0.0489813
 H              2.20421    1.37002    3.01226            0.106903 -0.0636039  0.0109979
 H              3.11654   0.827514    3.31952           -0.231936  -0.184757 -0.0357678
 H              4.01449    1.39146    3.01454              0.2872 0.00883919 -0.0297851
 H             0.381643     2.4854    3.05474          -0.0440349  0.0191188   0.118492
 H              1.29517    1.89731    3.35402            0.175092 -0.0617341 -0.0831673
 H              2.19883    2.45546    3.03231           0.0775368  -0.117287  0.0430179
 H              3.09952    1.91734    3.34279           -0.072816 -0.0147687   0.121365
 H              4.00086    2.48738    3.04591           -0.100971  -0.128117    -0.3159
 H             0.404924    3.58099    3.04448           -0.166903 -0.0885086    0.20382
 H              1.32156    3.00714    3.33478            0.172287  0.0120435  -0.106276
 H              2.21488    3.55449    3.02171           0.0262372  -0.108702  0.0389499
 H              3.09581    3.01473    3.34924          0.00511735 -0.0587067  -0.115837
 H              3.99099    3.60032    3.06605           0.0150471 -0.0199724   0.211711
 H             0.495031    4.71673    3.06098            0.152349  0.0372885   0.109889
 H                1.324    4.08925    3.31888            0.162443  0.0294038   -0.18092
 H              2.20289    4.69636    3.03543          -0.0994828  -0.169296 -0.0734726
 H              3.08719    4.08921    3.34558          -0.0889157 -0.0527468 -0.0866522
 H              3.90783    4.73549    3.09394           0.0345205 -0.0187449  0.0235858
 H             0.416315  -0.316312    3.93716            0.145988  0.0523045   0.131366
 H              1.32505   0.221015    4.22516             0.10325  -0.118589   0.245724
 H              2.21382   -0.32027     3.8849           -0.165602   0.199418  -0.185188
 H               3.0836   0.238733    4.21708           -0.147258 -0.0996549  0.0752646
 H              3.97412  -0.318201    3.91923          -0.0627683  -0.113764   0.247915
 H             0.410141   0.791564    3.96526           0.0422694    0.29688  -0.191844
 H              1.31192    1.33247    4.29662          -0.00406353  -0.0982742   -0.022201
 H              2.20789   0.812989    3.96755           -0.203666   0.080353 -0.0153046
 H              3.11404    1.35484    4.29311           0.0194869   0.151312  -0.120289
 H               4.0267   0.789991    3.97278           0.0976783    0.23701 -0.0461585
 H             0.406284    1.91583    4.00392           -0.211894 -0.0210327   -0.16129
 H              1.32958    2.46824    4.29028           0.0520831  -0.123683  0.0100902
 H              2.20914    1.90804    3.98308           -0.149423  0.0531364  0.0508152
 H              3.08455    2.45583     4.3189            0.252948 -0.0985656 -0.0805846
 H              4.02315    1.93079    3.99945           0.0914471   -0.14198 -0.0890746
 H             0.417855    3.03595    4.01331            0.056313  0.0786818   -0.14019
 H              1.34743    3.59328    4.32471           -0.118074  -0.165178 -0.0396766
 H              2.20139    3.02263     3.9807          -0.0405338   0.033508   0.042054
 H              3.07393     3.5677    4.32674            0.073373 -0.0839012  0.0046957
 H               3.9784    3.05011    4.00465           0.0895218   0.196427  0.0527117
 H             0.472289    4.19117    3.99087          -0.0241911  -0.250681  -0.141924
 H              1.44426    5.00887      3.834          -0.00359179   0.0602648  -0.0234162
 H              2.20292    4.14418    3.97237          -0.00746719  -0.0391198    0.100565
 H              2.97156    5.03398    3.80564            -0.06482  0.0364349   0.260715
 H              3.94271    4.18655    4.04757          -0.0514953 -0.0250381  -0.033549
